
###############################################################################
#
# This file contains modified crystal structure data generated from the
# MOF subset of the Cambridge Structural Database (CSD) v543 
# hosted by the Cambridge Crystallographic Data Centre (CCDC).
#
# This work is licensed under the Creative Commons
# Attribution-NonCommercial-ShareAlike 4.0 International License.
# To view a copy of this license, visit
# http://creativecommons.org/licenses/by-nc-sa/4.0/
# or send a letter to
# Creative Commons, PO Box 1866, Mountain View, CA 94042, USA.
#
# CIF created using the CSD Python API on 29 September 2022
# The structure has been converted into the P1 space group
# The structure has a 3D framework
# The original CSD entry ZUCKIT is in the cubic crystal system
# The framework has been calculated to contain at least 10.0% void space
# The void calculation uses a probe of radius 1.32A, grid spacing 0.4
# The framework is charged, counterions have been retained in the structure
#
###############################################################################

data_ZUCKIT
_chemical_formula_moiety         '(C2304 H1728 O384 Y48 48+)n'
_symmetry_cell_setting           triclinic
_symmetry_space_group_name_H-M   'P 1'
_symmetry_Int_Tables_number      1
_space_group_name_Hall           'P 1'
loop_
_symmetry_equiv_pos_site_id
_symmetry_equiv_pos_as_xyz
1 x,y,z
_cell_length_a                   51.550(6)
_cell_length_b                   51.550(6)
_cell_length_c                   51.550(6)
_cell_angle_alpha                90
_cell_angle_beta                 90
_cell_angle_gamma                90
_cell_volume                     136989
loop_
_atom_site_label
_atom_site_type_symbol
_atom_site_fract_x
_atom_site_fract_y
_atom_site_fract_z
Y1 Y 0.23311(4) 0.5000 0.18654(6)
O1 O 0.26428(17) 0.52996(13) 0.18384(17)
O2 O 0.2976(3) 0.5284(3) 0.2099(3)
C1 C 0.28725(14) 0.53626(10) 0.19247(17)
C2 C 0.29329(10) 0.56396(9) 0.18343(12)
C3 C 0.31533(10) 0.57155(7) 0.18921(11)
H1 H 0.3278 0.5598 0.1961
C4 C 0.32251(8) 0.60095(7) 0.18508(8)
C5 C 0.34996(9) 0.61239(9) 0.19486(10)
C6 C 0.35030(10) 0.63205(8) 0.17179(10)
C7 C 0.33157(11) 0.63296(8) 0.15143(9)
C8 C 0.31481(8) 0.60943(8) 0.16146(8)
C9 C 0.28944(11) 0.60104(12) 0.14396(11)
H2 H 0.2821 0.6095 0.1293
C10 C 0.34134(13) 0.62268(12) 0.21811(9)
H3 H 0.3417 0.6092 0.2315
H4 H 0.3236 0.6291 0.2160
H5 H 0.3527 0.6371 0.2233
C11 C 0.37215(8) 0.59136(11) 0.18938(15)
H6 H 0.3735 0.5883 0.1707
H7 H 0.3678 0.5751 0.1982
H8 H 0.3888 0.5978 0.1959
C12 C 0.27992(9) 0.57387(12) 0.15879(13)
H9 H 0.2658 0.5643 0.1518
O3 O 0.47004(13) 0.68384(17) 0.23572(17)
O4 O 0.4716(3) 0.7099(3) 0.2024(3)
C13 C 0.46374(10) 0.69247(17) 0.21275(14)
C14 C 0.43604(9) 0.68343(12) 0.20671(10)
C15 C 0.42845(7) 0.68921(11) 0.18467(10)
H10 H 0.4402 0.6961 0.1722
C16 C 0.39905(7) 0.68508(8) 0.17749(8)
C17 C 0.38761(9) 0.69486(10) 0.15004(9)
C18 C 0.36795(8) 0.67179(10) 0.14970(10)
C19 C 0.36704(8) 0.65143(9) 0.16843(11)
C20 C 0.39057(8) 0.66146(8) 0.18519(8)
C21 C 0.39896(12) 0.64396(11) 0.21056(11)
H11 H 0.3905 0.6293 0.2179
C22 C 0.37732(12) 0.71811(9) 0.15866(13)
H12 H 0.3908 0.7315 0.1583
H13 H 0.3709 0.7160 0.1764
H14 H 0.3629 0.7233 0.1473
C23 C 0.40864(11) 0.68938(15) 0.12785(8)
H15 H 0.4117 0.6707 0.1265
H16 H 0.4249 0.6982 0.1322
H17 H 0.4022 0.6959 0.1112
C24 C 0.42613(12) 0.65879(13) 0.22008(9)
H18 H 0.4357 0.6518 0.2342
O5 O 0.31616(17) 0.73572(17) 0.02996(13)
O6 O 0.2901(3) 0.7024(3) 0.0284(3)
C25 C 0.30753(17) 0.71275(14) 0.03626(10)
C26 C 0.31657(12) 0.70671(10) 0.06396(9)
C27 C 0.31079(11) 0.68467(10) 0.07155(7)
H19 H 0.3039 0.6722 0.0598
C28 C 0.31492(8) 0.67749(8) 0.10095(7)
C29 C 0.30514(10) 0.65004(9) 0.11239(9)
C30 C 0.32821(10) 0.64970(10) 0.13205(8)
C31 C 0.34857(9) 0.66843(11) 0.13296(8)
C32 C 0.33854(8) 0.68519(8) 0.10943(8)
C33 C 0.35604(11) 0.71056(11) 0.10104(12)
H20 H 0.3707 0.7179 0.1095
C34 C 0.28189(9) 0.65866(13) 0.12268(12)
H21 H 0.2685 0.6583 0.1092
H22 H 0.2840 0.6764 0.1291
H23 H 0.2767 0.6473 0.1371
C35 C 0.31062(15) 0.62785(8) 0.09136(11)
H24 H 0.3293 0.6265 0.0883
H25 H 0.3018 0.6322 0.0751
H26 H 0.3041 0.6112 0.0978
C36 C 0.34121(13) 0.72008(9) 0.07387(12)
H27 H 0.3482 0.7342 0.0643
Y2 Y 0.26689(4) 0.68654(6) 0.0000
O7 O 0.23572(17) 0.68384(17) 0.02996(13)
O8 O 0.2024(3) 0.7099(3) 0.0284(3)
C37 C 0.21275(14) 0.69247(17) 0.03626(10)
C38 C 0.20671(10) 0.68343(12) 0.06396(9)
C39 C 0.18467(10) 0.68921(11) 0.07155(7)
H28 H 0.1722 0.6961 0.0598
C40 C 0.17749(8) 0.68508(8) 0.10095(7)
C41 C 0.15004(9) 0.69486(10) 0.11239(9)
C42 C 0.14970(10) 0.67179(10) 0.13205(8)
C43 C 0.16843(11) 0.65143(9) 0.13296(8)
C44 C 0.18519(8) 0.66146(8) 0.10943(8)
C45 C 0.21056(11) 0.64396(11) 0.10104(12)
H29 H 0.2179 0.6293 0.1095
C46 C 0.15866(13) 0.71811(9) 0.12268(12)
H30 H 0.1583 0.7315 0.1092
H31 H 0.1764 0.7160 0.1291
H32 H 0.1473 0.7233 0.1371
C47 C 0.12785(8) 0.68938(15) 0.09136(11)
H33 H 0.1265 0.6707 0.0883
H34 H 0.1322 0.6982 0.0751
H35 H 0.1112 0.6959 0.0978
C48 C 0.22008(9) 0.65879(13) 0.07387(12)
H36 H 0.2342 0.6518 0.0643
O9 O 0.02996(13) 0.73572(17) 0.18384(17)
O10 O 0.0284(3) 0.7024(3) 0.2099(3)
C49 C 0.03626(10) 0.71275(14) 0.19247(17)
C50 C 0.06396(9) 0.70671(10) 0.18343(12)
C51 C 0.07155(7) 0.68467(10) 0.18921(11)
H37 H 0.0598 0.6722 0.1961
C52 C 0.10095(7) 0.67749(8) 0.18508(8)
C53 C 0.11239(9) 0.65004(9) 0.19486(10)
C54 C 0.13205(8) 0.64970(10) 0.17179(10)
C55 C 0.13296(8) 0.66843(11) 0.15143(9)
C56 C 0.10943(8) 0.68519(8) 0.16146(8)
C57 C 0.10104(12) 0.71056(11) 0.14396(11)
H38 H 0.1095 0.7179 0.1293
C58 C 0.12268(12) 0.65866(13) 0.21811(9)
H39 H 0.1092 0.6583 0.2315
H40 H 0.1291 0.6764 0.2160
H41 H 0.1371 0.6473 0.2233
C59 C 0.09136(11) 0.62785(8) 0.18938(15)
H42 H 0.0883 0.6265 0.1707
H43 H 0.0751 0.6322 0.1982
H44 H 0.0978 0.6112 0.1959
C60 C 0.07387(12) 0.72008(9) 0.15879(13)
H45 H 0.0643 0.7342 0.1518
O11 O 0.18384(17) 0.52996(13) 0.23572(17)
O12 O 0.2099(3) 0.5284(3) 0.2024(3)
C61 C 0.19247(17) 0.53626(10) 0.21275(14)
C62 C 0.18343(12) 0.56396(9) 0.20671(10)
C63 C 0.18921(11) 0.57155(7) 0.18467(10)
H46 H 0.1961 0.5598 0.1722
C64 C 0.18508(8) 0.60095(7) 0.17749(8)
C65 C 0.19486(10) 0.61239(9) 0.15004(9)
C66 C 0.17179(10) 0.63205(8) 0.14970(10)
C67 C 0.15143(9) 0.63296(8) 0.16843(11)
C68 C 0.16146(8) 0.60943(8) 0.18519(8)
C69 C 0.14396(11) 0.60104(12) 0.21056(11)
H47 H 0.1293 0.6095 0.2179
C70 C 0.21811(9) 0.62268(12) 0.15866(13)
H48 H 0.2315 0.6092 0.1583
H49 H 0.2160 0.6291 0.1764
H50 H 0.2233 0.6371 0.1473
C71 C 0.18938(15) 0.59136(11) 0.12785(8)
H51 H 0.1707 0.5883 0.1265
H52 H 0.1982 0.5751 0.1322
H53 H 0.1959 0.5978 0.1112
C72 C 0.15879(13) 0.57387(12) 0.22008(9)
H54 H 0.1518 0.5643 0.2342
Y3 Y 0.18654(6) 0.73311(4) 0.0000
Y4 Y 0.5000 0.68654(6) 0.26689(4)
Y5 Y -0.0000 0.76689(4) 0.18654(6)
Y6 Y 0.31346(6) 0.5000 0.23311(4)
Y7 Y 0.31346(6) 0.76689(4) 0.0000
Y8 Y 0.5000 0.73311(4) 0.18654(6)
Y9 Y 0.0000 0.68654(6) 0.23311(4)
Y10 Y 0.18654(6) 0.5000 0.26689(4)
O13 O 0.18384(17) 0.76428(17) 0.02996(13)
O14 O 0.26428(17) 0.47004(13) 0.18384(17)
O19 O 0.2099(3) 0.4716(3) 0.2024(3)
Y2_2 Y 0.26689(4) 0.68654(6) 1.0000
Y3_2 Y 0.18654(6) 0.73311(4) 1.0000
Y7_2 Y 0.31346(6) 0.76689(4) 1.0000
O15 O 0.23572(17) 0.68384(17) 0.97004(13)
O16 O 0.18384(17) 0.76428(17) 0.97004(13)
O17 O 0.2024(3) 0.7099(3) 0.9716(3)
O18 O 0.2901(3) 0.7024(3) 0.9716(3)
Y5_2 Y 1.0000 0.76689(4) 0.18654(6)
Y9_2 Y 1.0000 0.68654(6) 0.23311(4)
Y5_3 Y 0.0000 0.23311(4) 0.18654(6)
Y9_3 Y 0.0000 0.31346(6) 0.23311(4)
Y1_2 Y 0.76689(4) 0.5000 0.18654(6)
O1_2 O 0.73572(17) 0.47004(13) 0.18384(17)
O2_2 O 0.7024(3) 0.4716(3) 0.2099(3)
C1_2 C 0.71275(14) 0.46374(10) 0.19247(17)
C2_2 C 0.70671(10) 0.43604(9) 0.18343(12)
C3_2 C 0.68467(10) 0.42845(7) 0.18921(11)
H1_2 H 0.6722 0.4402 0.1961
C4_2 C 0.67749(8) 0.39905(7) 0.18508(8)
C5_2 C 0.65004(9) 0.38761(9) 0.19486(10)
C6_2 C 0.64970(10) 0.36795(8) 0.17179(10)
C7_2 C 0.66843(11) 0.36704(8) 0.15143(9)
C8_2 C 0.68519(8) 0.39057(8) 0.16146(8)
C9_2 C 0.71056(11) 0.39896(12) 0.14396(11)
H2_2 H 0.7179 0.3905 0.1293
C10_2 C 0.65866(13) 0.37732(12) 0.21811(9)
H3_2 H 0.6583 0.3908 0.2315
H4_2 H 0.6764 0.3709 0.2160
H5_2 H 0.6473 0.3629 0.2233
C11_2 C 0.62785(8) 0.40864(11) 0.18938(15)
H6_2 H 0.6265 0.4117 0.1707
H7_2 H 0.6322 0.4249 0.1982
H8_2 H 0.6112 0.4022 0.1959
C12_2 C 0.72008(9) 0.42613(12) 0.15879(13)
H9_2 H 0.7342 0.4357 0.1518
O3_2 O 0.52996(13) 0.31616(17) 0.23572(17)
O4_2 O 0.5284(3) 0.2901(3) 0.2024(3)
C13_2 C 0.53626(10) 0.30753(17) 0.21275(14)
C14_2 C 0.56396(9) 0.31657(12) 0.20671(10)
C15_2 C 0.57155(7) 0.31079(11) 0.18467(10)
H10_2 H 0.5598 0.3039 0.1722
C16_2 C 0.60095(7) 0.31492(8) 0.17749(8)
C17_2 C 0.61239(9) 0.30514(10) 0.15004(9)
C18_2 C 0.63205(8) 0.32821(10) 0.14970(10)
C19_2 C 0.63296(8) 0.34857(9) 0.16843(11)
C20_2 C 0.60943(8) 0.33854(8) 0.18519(8)
C21_2 C 0.60104(12) 0.35604(11) 0.21056(11)
H11_2 H 0.6095 0.3707 0.2179
C22_2 C 0.62268(12) 0.28189(9) 0.15866(13)
H12_2 H 0.6092 0.2685 0.1583
H13_2 H 0.6291 0.2840 0.1764
H14_2 H 0.6371 0.2767 0.1473
C23_2 C 0.59136(11) 0.31062(15) 0.12785(8)
H15_2 H 0.5883 0.3293 0.1265
H16_2 H 0.5751 0.3018 0.1322
H17_2 H 0.5978 0.3041 0.1112
C24_2 C 0.57387(12) 0.34121(13) 0.22008(9)
H18_2 H 0.5643 0.3482 0.2342
O5_2 O 0.68384(17) 0.26428(17) 0.02996(13)
O6_2 O 0.7099(3) 0.2976(3) 0.0284(3)
C25_2 C 0.69247(17) 0.28725(14) 0.03626(10)
C26_2 C 0.68343(12) 0.29329(10) 0.06396(9)
C27_2 C 0.68921(11) 0.31533(10) 0.07155(7)
H19_2 H 0.6961 0.3278 0.0598
C28_2 C 0.68508(8) 0.32251(8) 0.10095(7)
C29_2 C 0.69486(10) 0.34996(9) 0.11239(9)
C30_2 C 0.67179(10) 0.35030(10) 0.13205(8)
C31_2 C 0.65143(9) 0.33157(11) 0.13296(8)
C32_2 C 0.66146(8) 0.31481(8) 0.10943(8)
C33_2 C 0.64396(11) 0.28944(11) 0.10104(12)
H20_2 H 0.6293 0.2821 0.1095
C34_2 C 0.71811(9) 0.34134(13) 0.12268(12)
H21_2 H 0.7315 0.3417 0.1092
H22_2 H 0.7160 0.3236 0.1291
H23_2 H 0.7233 0.3527 0.1371
C35_2 C 0.68938(15) 0.37215(8) 0.09136(11)
H24_2 H 0.6707 0.3735 0.0883
H25_2 H 0.6982 0.3678 0.0751
H26_2 H 0.6959 0.3888 0.0978
C36_2 C 0.65879(13) 0.27992(9) 0.07387(12)
H27_2 H 0.6518 0.2658 0.0643
Y2_3 Y 0.73311(4) 0.31346(6) 0.0000
O7_2 O 0.76428(17) 0.31616(17) 0.02996(13)
O8_2 O 0.7976(3) 0.2901(3) 0.0284(3)
C37_2 C 0.78725(14) 0.30753(17) 0.03626(10)
C38_2 C 0.79329(10) 0.31657(12) 0.06396(9)
C39_2 C 0.81533(10) 0.31079(11) 0.07155(7)
H28_2 H 0.8278 0.3039 0.0598
C40_2 C 0.82251(8) 0.31492(8) 0.10095(7)
C41_2 C 0.84996(9) 0.30514(10) 0.11239(9)
C42_2 C 0.85030(10) 0.32821(10) 0.13205(8)
C43_2 C 0.83157(11) 0.34857(9) 0.13296(8)
C44_2 C 0.81481(8) 0.33854(8) 0.10943(8)
C45_2 C 0.78944(11) 0.35604(11) 0.10104(12)
H29_2 H 0.7821 0.3707 0.1095
C46_2 C 0.84134(13) 0.28189(9) 0.12268(12)
H30_2 H 0.8417 0.2685 0.1092
H31_2 H 0.8236 0.2840 0.1291
H32_2 H 0.8527 0.2767 0.1371
C47_2 C 0.87215(8) 0.31062(15) 0.09136(11)
H33_2 H 0.8735 0.3293 0.0883
H34_2 H 0.8678 0.3018 0.0751
H35_2 H 0.8888 0.3041 0.0978
C48_2 C 0.77992(9) 0.34121(13) 0.07387(12)
H36_2 H 0.7658 0.3482 0.0643
O9_2 O 0.97004(13) 0.26428(17) 0.18384(17)
O10_2 O 0.9716(3) 0.2976(3) 0.2099(3)
C49_2 C 0.96374(10) 0.28725(14) 0.19247(17)
C50_2 C 0.93604(9) 0.29329(10) 0.18343(12)
C51_2 C 0.92845(7) 0.31533(10) 0.18921(11)
H37_2 H 0.9402 0.3278 0.1961
C52_2 C 0.89905(7) 0.32251(8) 0.18508(8)
C53_2 C 0.88761(9) 0.34996(9) 0.19486(10)
C54_2 C 0.86795(8) 0.35030(10) 0.17179(10)
C55_2 C 0.86704(8) 0.33157(11) 0.15143(9)
C56_2 C 0.89057(8) 0.31481(8) 0.16146(8)
C57_2 C 0.89896(12) 0.28944(11) 0.14396(11)
H38_2 H 0.8905 0.2821 0.1293
C58_2 C 0.87732(12) 0.34134(13) 0.21811(9)
H39_2 H 0.8908 0.3417 0.2315
H40_2 H 0.8709 0.3236 0.2160
H41_2 H 0.8629 0.3527 0.2233
C59_2 C 0.90864(11) 0.37215(8) 0.18938(15)
H42_2 H 0.9117 0.3735 0.1707
H43_2 H 0.9249 0.3678 0.1982
H44_2 H 0.9022 0.3888 0.1959
C60_2 C 0.92613(12) 0.27992(9) 0.15879(13)
H45_2 H 0.9357 0.2658 0.1518
O11_2 O 0.81616(17) 0.47004(13) 0.23572(17)
O12_2 O 0.7901(3) 0.4716(3) 0.2024(3)
C61_2 C 0.80753(17) 0.46374(10) 0.21275(14)
C62_2 C 0.81657(12) 0.43604(9) 0.20671(10)
C63_2 C 0.81079(11) 0.42845(7) 0.18467(10)
H46_2 H 0.8039 0.4402 0.1722
C64_2 C 0.81492(8) 0.39905(7) 0.17749(8)
C65_2 C 0.80514(10) 0.38761(9) 0.15004(9)
C66_2 C 0.82821(10) 0.36795(8) 0.14970(10)
C67_2 C 0.84857(9) 0.36704(8) 0.16843(11)
C68_2 C 0.83854(8) 0.39057(8) 0.18519(8)
C69_2 C 0.85604(11) 0.39896(12) 0.21056(11)
H47_2 H 0.8707 0.3905 0.2179
C70_2 C 0.78189(9) 0.37732(12) 0.15866(13)
H48_2 H 0.7685 0.3908 0.1583
H49_2 H 0.7840 0.3709 0.1764
H50_2 H 0.7767 0.3629 0.1473
C71_2 C 0.81062(15) 0.40864(11) 0.12785(8)
H51_2 H 0.8293 0.4117 0.1265
H52_2 H 0.8018 0.4249 0.1322
H53_2 H 0.8041 0.4022 0.1112
C72_2 C 0.84121(13) 0.42613(12) 0.22008(9)
H54_2 H 0.8482 0.4357 0.2342
Y3_3 Y 0.81346(6) 0.26689(4) 0.0000
Y4_2 Y 0.5000 0.31346(6) 0.26689(4)
Y5_4 Y 1.0000 0.23311(4) 0.18654(6)
Y6_2 Y 0.68654(6) 0.5000 0.23311(4)
Y7_3 Y 0.68654(6) 0.23311(4) 0.0000
Y8_2 Y 0.5000 0.26689(4) 0.18654(6)
Y9_4 Y 1.0000 0.31346(6) 0.23311(4)
Y10_2 Y 0.81346(6) 0.5000 0.26689(4)
O13_2 O 0.81616(17) 0.23572(17) 0.02996(13)
O14_2 O 0.73572(17) 0.52996(13) 0.18384(17)
O19_2 O 0.7901(3) 0.5284(3) 0.2024(3)
Y2_4 Y 0.73311(4) 0.31346(6) 1.0000
Y3_4 Y 0.81346(6) 0.26689(4) 1.0000
Y7_4 Y 0.68654(6) 0.23311(4) 1.0000
O15_2 O 0.76428(17) 0.31616(17) 0.97004(13)
O16_2 O 0.81616(17) 0.23572(17) 0.97004(13)
O17_2 O 0.7976(3) 0.2901(3) 0.9716(3)
O18_2 O 0.7099(3) 0.2976(3) 0.9716(3)
Y5_5 Y 0.0000 0.76689(4) 0.81346(6)
Y9_5 Y 0.0000 0.68654(6) 0.76689(4)
Y2_5 Y 0.73311(4) 0.68654(6) 0.0000
Y3_5 Y 0.81346(6) 0.73311(4) 0.0000
Y7_5 Y 0.68654(6) 0.76689(4) 0.0000
O15_3 O 0.76428(17) 0.68384(17) 0.02996(13)
O16_3 O 0.81616(17) 0.76428(17) 0.02996(13)
O17_3 O 0.7976(3) 0.7099(3) 0.0284(3)
O18_3 O 0.7099(3) 0.7024(3) 0.0284(3)
Y1_3 Y 0.76689(4) 0.5000 0.81346(6)
O1_3 O 0.73572(17) 0.52996(13) 0.81616(17)
O2_3 O 0.7024(3) 0.5284(3) 0.7901(3)
C1_3 C 0.71275(14) 0.53626(10) 0.80753(17)
C2_3 C 0.70671(10) 0.56396(9) 0.81657(12)
C3_3 C 0.68467(10) 0.57155(7) 0.81079(11)
H1_3 H 0.6722 0.5598 0.8039
C4_3 C 0.67749(8) 0.60095(7) 0.81492(8)
C5_3 C 0.65004(9) 0.61239(9) 0.80514(10)
C6_3 C 0.64970(10) 0.63205(8) 0.82821(10)
C7_3 C 0.66843(11) 0.63296(8) 0.84857(9)
C8_3 C 0.68519(8) 0.60943(8) 0.83854(8)
C9_3 C 0.71056(11) 0.60104(12) 0.85604(11)
H2_3 H 0.7179 0.6095 0.8707
C10_3 C 0.65866(13) 0.62268(12) 0.78189(9)
H3_3 H 0.6583 0.6092 0.7685
H4_3 H 0.6764 0.6291 0.7840
H5_3 H 0.6473 0.6371 0.7767
C11_3 C 0.62785(8) 0.59136(11) 0.81062(15)
H6_3 H 0.6265 0.5883 0.8293
H7_3 H 0.6322 0.5751 0.8018
H8_3 H 0.6112 0.5978 0.8041
C12_3 C 0.72008(9) 0.57387(12) 0.84121(13)
H9_3 H 0.7342 0.5643 0.8482
O3_3 O 0.52996(13) 0.68384(17) 0.76428(17)
O4_3 O 0.5284(3) 0.7099(3) 0.7976(3)
C13_3 C 0.53626(10) 0.69247(17) 0.78725(14)
C14_3 C 0.56396(9) 0.68343(12) 0.79329(10)
C15_3 C 0.57155(7) 0.68921(11) 0.81533(10)
H10_3 H 0.5598 0.6961 0.8278
C16_3 C 0.60095(7) 0.68508(8) 0.82251(8)
C17_3 C 0.61239(9) 0.69486(10) 0.84996(9)
C18_3 C 0.63205(8) 0.67179(10) 0.85030(10)
C19_3 C 0.63296(8) 0.65143(9) 0.83157(11)
C20_3 C 0.60943(8) 0.66146(8) 0.81481(8)
C21_3 C 0.60104(12) 0.64396(11) 0.78944(11)
H11_3 H 0.6095 0.6293 0.7821
C22_3 C 0.62268(12) 0.71811(9) 0.84134(13)
H12_3 H 0.6092 0.7315 0.8417
H13_3 H 0.6291 0.7160 0.8236
H14_3 H 0.6371 0.7233 0.8527
C23_3 C 0.59136(11) 0.68938(15) 0.87215(8)
H15_3 H 0.5883 0.6707 0.8735
H16_3 H 0.5751 0.6982 0.8678
H17_3 H 0.5978 0.6959 0.8888
C24_3 C 0.57387(12) 0.65879(13) 0.77992(9)
H18_3 H 0.5643 0.6518 0.7658
O5_3 O 0.68384(17) 0.73572(17) 0.97004(13)
O6_3 O 0.7099(3) 0.7024(3) 0.9716(3)
C25_3 C 0.69247(17) 0.71275(14) 0.96374(10)
C26_3 C 0.68343(12) 0.70671(10) 0.93604(9)
C27_3 C 0.68921(11) 0.68467(10) 0.92845(7)
H19_3 H 0.6961 0.6722 0.9402
C28_3 C 0.68508(8) 0.67749(8) 0.89905(7)
C29_3 C 0.69486(10) 0.65004(9) 0.88761(9)
C30_3 C 0.67179(10) 0.64970(10) 0.86795(8)
C31_3 C 0.65143(9) 0.66843(11) 0.86704(8)
C32_3 C 0.66146(8) 0.68519(8) 0.89057(8)
C33_3 C 0.64396(11) 0.71056(11) 0.89896(12)
H20_3 H 0.6293 0.7179 0.8905
C34_3 C 0.71811(9) 0.65866(13) 0.87732(12)
H21_3 H 0.7315 0.6583 0.8908
H22_3 H 0.7160 0.6764 0.8709
H23_3 H 0.7233 0.6473 0.8629
C35_3 C 0.68938(15) 0.62785(8) 0.90864(11)
H24_3 H 0.6707 0.6265 0.9117
H25_3 H 0.6982 0.6322 0.9249
H26_3 H 0.6959 0.6112 0.9022
C36_3 C 0.65879(13) 0.72008(9) 0.92613(12)
H27_3 H 0.6518 0.7342 0.9357
Y2_6 Y 0.73311(4) 0.68654(6) 1.0000
O7_3 O 0.76428(17) 0.68384(17) 0.97004(13)
O8_3 O 0.7976(3) 0.7099(3) 0.9716(3)
C37_3 C 0.78725(14) 0.69247(17) 0.96374(10)
C38_3 C 0.79329(10) 0.68343(12) 0.93604(9)
C39_3 C 0.81533(10) 0.68921(11) 0.92845(7)
H28_3 H 0.8278 0.6961 0.9402
C40_3 C 0.82251(8) 0.68508(8) 0.89905(7)
C41_3 C 0.84996(9) 0.69486(10) 0.88761(9)
C42_3 C 0.85030(10) 0.67179(10) 0.86795(8)
C43_3 C 0.83157(11) 0.65143(9) 0.86704(8)
C44_3 C 0.81481(8) 0.66146(8) 0.89057(8)
C45_3 C 0.78944(11) 0.64396(11) 0.89896(12)
H29_3 H 0.7821 0.6293 0.8905
C46_3 C 0.84134(13) 0.71811(9) 0.87732(12)
H30_3 H 0.8417 0.7315 0.8908
H31_3 H 0.8236 0.7160 0.8709
H32_3 H 0.8527 0.7233 0.8629
C47_3 C 0.87215(8) 0.68938(15) 0.90864(11)
H33_3 H 0.8735 0.6707 0.9117
H34_3 H 0.8678 0.6982 0.9249
H35_3 H 0.8888 0.6959 0.9022
C48_3 C 0.77992(9) 0.65879(13) 0.92613(12)
H36_3 H 0.7658 0.6518 0.9357
O9_3 O 0.97004(13) 0.73572(17) 0.81616(17)
O10_3 O 0.9716(3) 0.7024(3) 0.7901(3)
C49_3 C 0.96374(10) 0.71275(14) 0.80753(17)
C50_3 C 0.93604(9) 0.70671(10) 0.81657(12)
C51_3 C 0.92845(7) 0.68467(10) 0.81079(11)
H37_3 H 0.9402 0.6722 0.8039
C52_3 C 0.89905(7) 0.67749(8) 0.81492(8)
C53_3 C 0.88761(9) 0.65004(9) 0.80514(10)
C54_3 C 0.86795(8) 0.64970(10) 0.82821(10)
C55_3 C 0.86704(8) 0.66843(11) 0.84857(9)
C56_3 C 0.89057(8) 0.68519(8) 0.83854(8)
C57_3 C 0.89896(12) 0.71056(11) 0.85604(11)
H38_3 H 0.8905 0.7179 0.8707
C58_3 C 0.87732(12) 0.65866(13) 0.78189(9)
H39_3 H 0.8908 0.6583 0.7685
H40_3 H 0.8709 0.6764 0.7840
H41_3 H 0.8629 0.6473 0.7767
C59_3 C 0.90864(11) 0.62785(8) 0.81062(15)
H42_3 H 0.9117 0.6265 0.8293
H43_3 H 0.9249 0.6322 0.8018
H44_3 H 0.9022 0.6112 0.8041
C60_3 C 0.92613(12) 0.72008(9) 0.84121(13)
H45_3 H 0.9357 0.7342 0.8482
O11_3 O 0.81616(17) 0.52996(13) 0.76428(17)
O12_3 O 0.7901(3) 0.5284(3) 0.7976(3)
C61_3 C 0.80753(17) 0.53626(10) 0.78725(14)
C62_3 C 0.81657(12) 0.56396(9) 0.79329(10)
C63_3 C 0.81079(11) 0.57155(7) 0.81533(10)
H46_3 H 0.8039 0.5598 0.8278
C64_3 C 0.81492(8) 0.60095(7) 0.82251(8)
C65_3 C 0.80514(10) 0.61239(9) 0.84996(9)
C66_3 C 0.82821(10) 0.63205(8) 0.85030(10)
C67_3 C 0.84857(9) 0.63296(8) 0.83157(11)
C68_3 C 0.83854(8) 0.60943(8) 0.81481(8)
C69_3 C 0.85604(11) 0.60104(12) 0.78944(11)
H47_3 H 0.8707 0.6095 0.7821
C70_3 C 0.78189(9) 0.62268(12) 0.84134(13)
H48_3 H 0.7685 0.6092 0.8417
H49_3 H 0.7840 0.6291 0.8236
H50_3 H 0.7767 0.6371 0.8527
C71_3 C 0.81062(15) 0.59136(11) 0.87215(8)
H51_3 H 0.8293 0.5883 0.8735
H52_3 H 0.8018 0.5751 0.8678
H53_3 H 0.8041 0.5978 0.8888
C72_3 C 0.84121(13) 0.57387(12) 0.77992(9)
H54_3 H 0.8482 0.5643 0.7658
Y3_6 Y 0.81346(6) 0.73311(4) 1.0000
Y4_3 Y 0.5000 0.68654(6) 0.73311(4)
Y5_6 Y 1.0000 0.76689(4) 0.81346(6)
Y6_3 Y 0.68654(6) 0.5000 0.76689(4)
Y7_6 Y 0.68654(6) 0.76689(4) 1.0000
Y8_3 Y 0.5000 0.73311(4) 0.81346(6)
Y9_6 Y 1.0000 0.68654(6) 0.76689(4)
Y10_3 Y 0.81346(6) 0.5000 0.73311(4)
O13_3 O 0.81616(17) 0.76428(17) 0.97004(13)
O14_3 O 0.73572(17) 0.47004(13) 0.81616(17)
O19_3 O 0.7901(3) 0.4716(3) 0.7976(3)
Y2_7 Y 0.26689(4) 0.31346(6) 0.0000
Y3_7 Y 0.18654(6) 0.26689(4) 0.0000
Y7_7 Y 0.31346(6) 0.23311(4) 0.0000
O15_4 O 0.23572(17) 0.31616(17) 0.02996(13)
O16_4 O 0.18384(17) 0.23572(17) 0.02996(13)
O17_4 O 0.2024(3) 0.2901(3) 0.0284(3)
O18_4 O 0.2901(3) 0.2976(3) 0.0284(3)
Y1_4 Y 0.23311(4) 0.5000 0.81346(6)
O1_4 O 0.26428(17) 0.47004(13) 0.81616(17)
O2_4 O 0.2976(3) 0.4716(3) 0.7901(3)
C1_4 C 0.28725(14) 0.46374(10) 0.80753(17)
C2_4 C 0.29329(10) 0.43604(9) 0.81657(12)
C3_4 C 0.31533(10) 0.42845(7) 0.81079(11)
H1_4 H 0.3278 0.4402 0.8039
C4_4 C 0.32251(8) 0.39905(7) 0.81492(8)
C5_4 C 0.34996(9) 0.38761(9) 0.80514(10)
C6_4 C 0.35030(10) 0.36795(8) 0.82821(10)
C7_4 C 0.33157(11) 0.36704(8) 0.84857(9)
C8_4 C 0.31481(8) 0.39057(8) 0.83854(8)
C9_4 C 0.28944(11) 0.39896(12) 0.85604(11)
H2_4 H 0.2821 0.3905 0.8707
C10_4 C 0.34134(13) 0.37732(12) 0.78189(9)
H3_4 H 0.3417 0.3908 0.7685
H4_4 H 0.3236 0.3709 0.7840
H5_4 H 0.3527 0.3629 0.7767
C11_4 C 0.37215(8) 0.40864(11) 0.81062(15)
H6_4 H 0.3735 0.4117 0.8293
H7_4 H 0.3678 0.4249 0.8018
H8_4 H 0.3888 0.4022 0.8041
C12_4 C 0.27992(9) 0.42613(12) 0.84121(13)
H9_4 H 0.2658 0.4357 0.8482
O3_4 O 0.47004(13) 0.31616(17) 0.76428(17)
O4_4 O 0.4716(3) 0.2901(3) 0.7976(3)
C13_4 C 0.46374(10) 0.30753(17) 0.78725(14)
C14_4 C 0.43604(9) 0.31657(12) 0.79329(10)
C15_4 C 0.42845(7) 0.31079(11) 0.81533(10)
H10_4 H 0.4402 0.3039 0.8278
C16_4 C 0.39905(7) 0.31492(8) 0.82251(8)
C17_4 C 0.38761(9) 0.30514(10) 0.84996(9)
C18_4 C 0.36795(8) 0.32821(10) 0.85030(10)
C19_4 C 0.36704(8) 0.34857(9) 0.83157(11)
C20_4 C 0.39057(8) 0.33854(8) 0.81481(8)
C21_4 C 0.39896(12) 0.35604(11) 0.78944(11)
H11_4 H 0.3905 0.3707 0.7821
C22_4 C 0.37732(12) 0.28189(9) 0.84134(13)
H12_4 H 0.3908 0.2685 0.8417
H13_4 H 0.3709 0.2840 0.8236
H14_4 H 0.3629 0.2767 0.8527
C23_4 C 0.40864(11) 0.31062(15) 0.87215(8)
H15_4 H 0.4117 0.3293 0.8735
H16_4 H 0.4249 0.3018 0.8678
H17_4 H 0.4022 0.3041 0.8888
C24_4 C 0.42613(12) 0.34121(13) 0.77992(9)
H18_4 H 0.4357 0.3482 0.7658
O5_4 O 0.31616(17) 0.26428(17) 0.97004(13)
O6_4 O 0.2901(3) 0.2976(3) 0.9716(3)
C25_4 C 0.30753(17) 0.28725(14) 0.96374(10)
C26_4 C 0.31657(12) 0.29329(10) 0.93604(9)
C27_4 C 0.31079(11) 0.31533(10) 0.92845(7)
H19_4 H 0.3039 0.3278 0.9402
C28_4 C 0.31492(8) 0.32251(8) 0.89905(7)
C29_4 C 0.30514(10) 0.34996(9) 0.88761(9)
C30_4 C 0.32821(10) 0.35030(10) 0.86795(8)
C31_4 C 0.34857(9) 0.33157(11) 0.86704(8)
C32_4 C 0.33854(8) 0.31481(8) 0.89057(8)
C33_4 C 0.35604(11) 0.28944(11) 0.89896(12)
H20_4 H 0.3707 0.2821 0.8905
C34_4 C 0.28189(9) 0.34134(13) 0.87732(12)
H21_4 H 0.2685 0.3417 0.8908
H22_4 H 0.2840 0.3236 0.8709
H23_4 H 0.2767 0.3527 0.8629
C35_4 C 0.31062(15) 0.37215(8) 0.90864(11)
H24_4 H 0.3293 0.3735 0.9117
H25_4 H 0.3018 0.3678 0.9249
H26_4 H 0.3041 0.3888 0.9022
C36_4 C 0.34121(13) 0.27992(9) 0.92613(12)
H27_4 H 0.3482 0.2658 0.9357
Y2_8 Y 0.26689(4) 0.31346(6) 1.0000
O7_4 O 0.23572(17) 0.31616(17) 0.97004(13)
O8_4 O 0.2024(3) 0.2901(3) 0.9716(3)
C37_4 C 0.21275(14) 0.30753(17) 0.96374(10)
C38_4 C 0.20671(10) 0.31657(12) 0.93604(9)
C39_4 C 0.18467(10) 0.31079(11) 0.92845(7)
H28_4 H 0.1722 0.3039 0.9402
C40_4 C 0.17749(8) 0.31492(8) 0.89905(7)
C41_4 C 0.15004(9) 0.30514(10) 0.88761(9)
C42_4 C 0.14970(10) 0.32821(10) 0.86795(8)
C43_4 C 0.16843(11) 0.34857(9) 0.86704(8)
C44_4 C 0.18519(8) 0.33854(8) 0.89057(8)
C45_4 C 0.21056(11) 0.35604(11) 0.89896(12)
H29_4 H 0.2179 0.3707 0.8905
C46_4 C 0.15866(13) 0.28189(9) 0.87732(12)
H30_4 H 0.1583 0.2685 0.8908
H31_4 H 0.1764 0.2840 0.8709
H32_4 H 0.1473 0.2767 0.8629
C47_4 C 0.12785(8) 0.31062(15) 0.90864(11)
H33_4 H 0.1265 0.3293 0.9117
H34_4 H 0.1322 0.3018 0.9249
H35_4 H 0.1112 0.3041 0.9022
C48_4 C 0.22008(9) 0.34121(13) 0.92613(12)
H36_4 H 0.2342 0.3482 0.9357
O9_4 O 0.02996(13) 0.26428(17) 0.81616(17)
O10_4 O 0.0284(3) 0.2976(3) 0.7901(3)
C49_4 C 0.03626(10) 0.28725(14) 0.80753(17)
C50_4 C 0.06396(9) 0.29329(10) 0.81657(12)
C51_4 C 0.07155(7) 0.31533(10) 0.81079(11)
H37_4 H 0.0598 0.3278 0.8039
C52_4 C 0.10095(7) 0.32251(8) 0.81492(8)
C53_4 C 0.11239(9) 0.34996(9) 0.80514(10)
C54_4 C 0.13205(8) 0.35030(10) 0.82821(10)
C55_4 C 0.13296(8) 0.33157(11) 0.84857(9)
C56_4 C 0.10943(8) 0.31481(8) 0.83854(8)
C57_4 C 0.10104(12) 0.28944(11) 0.85604(11)
H38_4 H 0.1095 0.2821 0.8707
C58_4 C 0.12268(12) 0.34134(13) 0.78189(9)
H39_4 H 0.1092 0.3417 0.7685
H40_4 H 0.1291 0.3236 0.7840
H41_4 H 0.1371 0.3527 0.7767
C59_4 C 0.09136(11) 0.37215(8) 0.81062(15)
H42_4 H 0.0883 0.3735 0.8293
H43_4 H 0.0751 0.3678 0.8018
H44_4 H 0.0978 0.3888 0.8041
C60_4 C 0.07387(12) 0.27992(9) 0.84121(13)
H45_4 H 0.0643 0.2658 0.8482
O11_4 O 0.18384(17) 0.47004(13) 0.76428(17)
O12_4 O 0.2099(3) 0.4716(3) 0.7976(3)
C61_4 C 0.19247(17) 0.46374(10) 0.78725(14)
C62_4 C 0.18343(12) 0.43604(9) 0.79329(10)
C63_4 C 0.18921(11) 0.42845(7) 0.81533(10)
H46_4 H 0.1961 0.4402 0.8278
C64_4 C 0.18508(8) 0.39905(7) 0.82251(8)
C65_4 C 0.19486(10) 0.38761(9) 0.84996(9)
C66_4 C 0.17179(10) 0.36795(8) 0.85030(10)
C67_4 C 0.15143(9) 0.36704(8) 0.83157(11)
C68_4 C 0.16146(8) 0.39057(8) 0.81481(8)
C69_4 C 0.14396(11) 0.39896(12) 0.78944(11)
H47_4 H 0.1293 0.3905 0.7821
C70_4 C 0.21811(9) 0.37732(12) 0.84134(13)
H48_4 H 0.2315 0.3908 0.8417
H49_4 H 0.2160 0.3709 0.8236
H50_4 H 0.2233 0.3629 0.8527
C71_4 C 0.18938(15) 0.40864(11) 0.87215(8)
H51_4 H 0.1707 0.4117 0.8735
H52_4 H 0.1982 0.4249 0.8678
H53_4 H 0.1959 0.4022 0.8888
C72_4 C 0.15879(13) 0.42613(12) 0.77992(9)
H54_4 H 0.1518 0.4357 0.7658
Y3_8 Y 0.18654(6) 0.26689(4) 1.0000
Y4_4 Y 0.5000 0.31346(6) 0.73311(4)
Y5_7 Y -0.0000 0.23311(4) 0.81346(6)
Y6_4 Y 0.31346(6) 0.5000 0.76689(4)
Y7_8 Y 0.31346(6) 0.23311(4) 1.0000
Y8_4 Y 0.5000 0.26689(4) 0.81346(6)
Y9_7 Y -0.0000 0.31346(6) 0.76689(4)
Y10_4 Y 0.18654(6) 0.5000 0.73311(4)
O13_4 O 0.18384(17) 0.23572(17) 0.97004(13)
O14_4 O 0.26428(17) 0.52996(13) 0.81616(17)
O19_4 O 0.2099(3) 0.5284(3) 0.7976(3)
Y5_8 Y 1.0000 0.23311(4) 0.81346(6)
Y9_8 Y 1.0000 0.31346(6) 0.76689(4)
Y1_5 Y 0.18654(6) 0.23311(4) 0.5000
O1_5 O 0.18384(17) 0.26428(17) 0.52996(13)
O2_5 O 0.2099(3) 0.2976(3) 0.5284(3)
C1_5 C 0.19247(17) 0.28725(14) 0.53626(10)
C2_5 C 0.18343(12) 0.29329(10) 0.56396(9)
C3_5 C 0.18921(11) 0.31533(10) 0.57155(7)
H1_5 H 0.1961 0.3278 0.5598
C4_5 C 0.18508(8) 0.32251(8) 0.60095(7)
C5_5 C 0.19486(10) 0.34996(9) 0.61239(9)
C6_5 C 0.17179(10) 0.35030(10) 0.63205(8)
C7_5 C 0.15143(9) 0.33157(11) 0.63296(8)
C8_5 C 0.16146(8) 0.31481(8) 0.60943(8)
C9_5 C 0.14396(11) 0.28944(11) 0.60104(12)
H2_5 H 0.1293 0.2821 0.6095
C10_5 C 0.21811(9) 0.34134(13) 0.62268(12)
H3_5 H 0.2315 0.3417 0.6092
H4_5 H 0.2160 0.3236 0.6291
H5_5 H 0.2233 0.3527 0.6371
C11_5 C 0.18938(15) 0.37215(8) 0.59136(11)
H6_5 H 0.1707 0.3735 0.5883
H7_5 H 0.1982 0.3678 0.5751
H8_5 H 0.1959 0.3888 0.5978
C12_5 C 0.15879(13) 0.27992(9) 0.57387(12)
H9_5 H 0.1518 0.2658 0.5643
O3_5 O 0.23572(17) 0.47004(13) 0.68384(17)
O4_5 O 0.2024(3) 0.4716(3) 0.7099(3)
C13_5 C 0.21275(14) 0.46374(10) 0.69247(17)
C14_5 C 0.20671(10) 0.43604(9) 0.68343(12)
C15_5 C 0.18467(10) 0.42845(7) 0.68921(11)
H10_5 H 0.1722 0.4402 0.6961
C16_5 C 0.17749(8) 0.39905(7) 0.68508(8)
C17_5 C 0.15004(9) 0.38761(9) 0.69486(10)
C18_5 C 0.14970(10) 0.36795(8) 0.67179(10)
C19_5 C 0.16843(11) 0.36704(8) 0.65143(9)
C20_5 C 0.18519(8) 0.39057(8) 0.66146(8)
C21_5 C 0.21056(11) 0.39896(12) 0.64396(11)
H11_5 H 0.2179 0.3905 0.6293
C22_5 C 0.15866(13) 0.37732(12) 0.71811(9)
H12_5 H 0.1583 0.3908 0.7315
H13_5 H 0.1764 0.3709 0.7160
H14_5 H 0.1473 0.3629 0.7233
C23_5 C 0.12785(8) 0.40864(11) 0.68938(15)
H15_5 H 0.1265 0.4117 0.6707
H16_5 H 0.1322 0.4249 0.6982
H17_5 H 0.1112 0.4022 0.6959
C24_5 C 0.22008(9) 0.42613(12) 0.65879(13)
H18_5 H 0.2342 0.4357 0.6518
O5_5 O 0.02996(13) 0.31616(17) 0.73572(17)
O6_5 O 0.0284(3) 0.2901(3) 0.7024(3)
C25_5 C 0.03626(10) 0.30753(17) 0.71275(14)
C26_5 C 0.06396(9) 0.31657(12) 0.70671(10)
C27_5 C 0.07155(7) 0.31079(11) 0.68467(10)
H19_5 H 0.0598 0.3039 0.6722
C28_5 C 0.10095(7) 0.31492(8) 0.67749(8)
C29_5 C 0.11239(9) 0.30514(10) 0.65004(9)
C30_5 C 0.13205(8) 0.32821(10) 0.64970(10)
C31_5 C 0.13296(8) 0.34857(9) 0.66843(11)
C32_5 C 0.10943(8) 0.33854(8) 0.68519(8)
C33_5 C 0.10104(12) 0.35604(11) 0.71056(11)
H20_5 H 0.1095 0.3707 0.7179
C34_5 C 0.12268(12) 0.28189(9) 0.65866(13)
H21_5 H 0.1092 0.2685 0.6583
H22_5 H 0.1291 0.2840 0.6764
H23_5 H 0.1371 0.2767 0.6473
C35_5 C 0.09136(11) 0.31062(15) 0.62785(8)
H24_5 H 0.0883 0.3293 0.6265
H25_5 H 0.0751 0.3018 0.6322
H26_5 H 0.0978 0.3041 0.6112
C36_5 C 0.07387(12) 0.34121(13) 0.72008(9)
H27_5 H 0.0643 0.3482 0.7342
Y2_9 Y -0.0000 0.26689(4) 0.68654(6)
O7_5 O 0.02996(13) 0.23572(17) 0.68384(17)
O8_5 O 0.0284(3) 0.2024(3) 0.7099(3)
C37_5 C 0.03626(10) 0.21275(14) 0.69247(17)
C38_5 C 0.06396(9) 0.20671(10) 0.68343(12)
C39_5 C 0.07155(7) 0.18467(10) 0.68921(11)
H28_5 H 0.0598 0.1722 0.6961
C40_5 C 0.10095(7) 0.17749(8) 0.68508(8)
C41_5 C 0.11239(9) 0.15004(9) 0.69486(10)
C42_5 C 0.13205(8) 0.14970(10) 0.67179(10)
C43_5 C 0.13296(8) 0.16843(11) 0.65143(9)
C44_5 C 0.10943(8) 0.18519(8) 0.66146(8)
C45_5 C 0.10104(12) 0.21056(11) 0.64396(11)
H29_5 H 0.1095 0.2179 0.6293
C46_5 C 0.12268(12) 0.15866(13) 0.71811(9)
H30_5 H 0.1092 0.1583 0.7315
H31_5 H 0.1291 0.1764 0.7160
H32_5 H 0.1371 0.1473 0.7233
C47_5 C 0.09136(11) 0.12785(8) 0.68938(15)
H33_5 H 0.0883 0.1265 0.6707
H34_5 H 0.0751 0.1322 0.6982
H35_5 H 0.0978 0.1112 0.6959
C48_5 C 0.07387(12) 0.22008(9) 0.65879(13)
H36_5 H 0.0643 0.2342 0.6518
O9_5 O 0.18384(17) 0.02996(13) 0.73572(17)
O10_5 O 0.2099(3) 0.0284(3) 0.7024(3)
C49_5 C 0.19247(17) 0.03626(10) 0.71275(14)
C50_5 C 0.18343(12) 0.06396(9) 0.70671(10)
C51_5 C 0.18921(11) 0.07155(7) 0.68467(10)
H37_5 H 0.1961 0.0598 0.6722
C52_5 C 0.18508(8) 0.10095(7) 0.67749(8)
C53_5 C 0.19486(10) 0.11239(9) 0.65004(9)
C54_5 C 0.17179(10) 0.13205(8) 0.64970(10)
C55_5 C 0.15143(9) 0.13296(8) 0.66843(11)
C56_5 C 0.16146(8) 0.10943(8) 0.68519(8)
C57_5 C 0.14396(11) 0.10104(12) 0.71056(11)
H38_5 H 0.1293 0.1095 0.7179
C58_5 C 0.21811(9) 0.12268(12) 0.65866(13)
H39_5 H 0.2315 0.1092 0.6583
H40_5 H 0.2160 0.1291 0.6764
H41_5 H 0.2233 0.1371 0.6473
C59_5 C 0.18938(15) 0.09136(11) 0.62785(8)
H42_5 H 0.1707 0.0883 0.6265
H43_5 H 0.1982 0.0751 0.6322
H44_5 H 0.1959 0.0978 0.6112
C60_5 C 0.15879(13) 0.07387(12) 0.72008(9)
H45_5 H 0.1518 0.0643 0.7342
O11_5 O 0.23572(17) 0.18384(17) 0.52996(13)
O12_5 O 0.2024(3) 0.2099(3) 0.5284(3)
C61_5 C 0.21275(14) 0.19247(17) 0.53626(10)
C62_5 C 0.20671(10) 0.18343(12) 0.56396(9)
C63_5 C 0.18467(10) 0.18921(11) 0.57155(7)
H46_5 H 0.1722 0.1961 0.5598
C64_5 C 0.17749(8) 0.18508(8) 0.60095(7)
C65_5 C 0.15004(9) 0.19486(10) 0.61239(9)
C66_5 C 0.14970(10) 0.17179(10) 0.63205(8)
C67_5 C 0.16843(11) 0.15143(9) 0.63296(8)
C68_5 C 0.18519(8) 0.16146(8) 0.60943(8)
C69_5 C 0.21056(11) 0.14396(11) 0.60104(12)
H47_5 H 0.2179 0.1293 0.6095
C70_5 C 0.15866(13) 0.21811(9) 0.62268(12)
H48_5 H 0.1583 0.2315 0.6092
H49_5 H 0.1764 0.2160 0.6291
H50_5 H 0.1473 0.2233 0.6371
C71_5 C 0.12785(8) 0.18938(15) 0.59136(11)
H51_5 H 0.1265 0.1707 0.5883
H52_5 H 0.1322 0.1982 0.5751
H53_5 H 0.1112 0.1959 0.5978
C72_5 C 0.22008(9) 0.15879(13) 0.57387(12)
H54_5 H 0.2342 0.1518 0.5643
Y3_9 Y 0.0000 0.18654(6) 0.73311(4)
Y4_5 Y 0.26689(4) 0.5000 0.68654(6)
Y5_9 Y 0.18654(6) 0.0000 0.76689(4)
Y6_5 Y 0.23311(4) 0.31346(6) 0.5000
Y9_9 Y 0.23311(4) 0.0000 0.68654(6)
Y10_5 Y 0.26689(4) 0.18654(6) 0.5000
O13_5 O 0.02996(13) 0.18384(17) 0.76428(17)
O14_5 O 0.18384(17) 0.26428(17) 0.47004(13)
O19_5 O 0.2024(3) 0.2099(3) 0.4716(3)
Y5_10 Y 0.18654(6) 1.0000 0.76689(4)
Y9_10 Y 0.23311(4) 1.0000 0.68654(6)
Y2_10 Y 1.0000 0.26689(4) 0.68654(6)
Y3_10 Y 1.0000 0.18654(6) 0.73311(4)
O15_5 O 0.97004(13) 0.23572(17) 0.68384(17)
O16_5 O 0.97004(13) 0.18384(17) 0.76428(17)
O17_5 O 0.9716(3) 0.2024(3) 0.7099(3)
O18_5 O 0.9716(3) 0.2901(3) 0.7024(3)
Y5_11 Y 0.18654(6) 0.0000 0.23311(4)
Y9_11 Y 0.23311(4) 0.0000 0.31346(6)
Y1_6 Y 0.18654(6) 0.76689(4) 0.5000
O1_6 O 0.18384(17) 0.73572(17) 0.47004(13)
O2_6 O 0.2099(3) 0.7024(3) 0.4716(3)
C1_6 C 0.19247(17) 0.71275(14) 0.46374(10)
C2_6 C 0.18343(12) 0.70671(10) 0.43604(9)
C3_6 C 0.18921(11) 0.68467(10) 0.42845(7)
H1_6 H 0.1961 0.6722 0.4402
C4_6 C 0.18508(8) 0.67749(8) 0.39905(7)
C5_6 C 0.19486(10) 0.65004(9) 0.38761(9)
C6_6 C 0.17179(10) 0.64970(10) 0.36795(8)
C7_6 C 0.15143(9) 0.66843(11) 0.36704(8)
C8_6 C 0.16146(8) 0.68519(8) 0.39057(8)
C9_6 C 0.14396(11) 0.71056(11) 0.39896(12)
H2_6 H 0.1293 0.7179 0.3905
C10_6 C 0.21811(9) 0.65866(13) 0.37732(12)
H3_6 H 0.2315 0.6583 0.3908
H4_6 H 0.2160 0.6764 0.3709
H5_6 H 0.2233 0.6473 0.3629
C11_6 C 0.18938(15) 0.62785(8) 0.40864(11)
H6_6 H 0.1707 0.6265 0.4117
H7_6 H 0.1982 0.6322 0.4249
H8_6 H 0.1959 0.6112 0.4022
C12_6 C 0.15879(13) 0.72008(9) 0.42613(12)
H9_6 H 0.1518 0.7342 0.4357
O3_6 O 0.23572(17) 0.52996(13) 0.31616(17)
O4_6 O 0.2024(3) 0.5284(3) 0.2901(3)
C13_6 C 0.21275(14) 0.53626(10) 0.30753(17)
C14_6 C 0.20671(10) 0.56396(9) 0.31657(12)
C15_6 C 0.18467(10) 0.57155(7) 0.31079(11)
H10_6 H 0.1722 0.5598 0.3039
C16_6 C 0.17749(8) 0.60095(7) 0.31492(8)
C17_6 C 0.15004(9) 0.61239(9) 0.30514(10)
C18_6 C 0.14970(10) 0.63205(8) 0.32821(10)
C19_6 C 0.16843(11) 0.63296(8) 0.34857(9)
C20_6 C 0.18519(8) 0.60943(8) 0.33854(8)
C21_6 C 0.21056(11) 0.60104(12) 0.35604(11)
H11_6 H 0.2179 0.6095 0.3707
C22_6 C 0.15866(13) 0.62268(12) 0.28189(9)
H12_6 H 0.1583 0.6092 0.2685
H13_6 H 0.1764 0.6291 0.2840
H14_6 H 0.1473 0.6371 0.2767
C23_6 C 0.12785(8) 0.59136(11) 0.31062(15)
H15_6 H 0.1265 0.5883 0.3293
H16_6 H 0.1322 0.5751 0.3018
H17_6 H 0.1112 0.5978 0.3041
C24_6 C 0.22008(9) 0.57387(12) 0.34121(13)
H18_6 H 0.2342 0.5643 0.3482
O5_6 O 0.02996(13) 0.68384(17) 0.26428(17)
O6_6 O 0.0284(3) 0.7099(3) 0.2976(3)
C25_6 C 0.03626(10) 0.69247(17) 0.28725(14)
C26_6 C 0.06396(9) 0.68343(12) 0.29329(10)
C27_6 C 0.07155(7) 0.68921(11) 0.31533(10)
H19_6 H 0.0598 0.6961 0.3278
C28_6 C 0.10095(7) 0.68508(8) 0.32251(8)
C29_6 C 0.11239(9) 0.69486(10) 0.34996(9)
C30_6 C 0.13205(8) 0.67179(10) 0.35030(10)
C31_6 C 0.13296(8) 0.65143(9) 0.33157(11)
C32_6 C 0.10943(8) 0.66146(8) 0.31481(8)
C33_6 C 0.10104(12) 0.64396(11) 0.28944(11)
H20_6 H 0.1095 0.6293 0.2821
C34_6 C 0.12268(12) 0.71811(9) 0.34134(13)
H21_6 H 0.1092 0.7315 0.3417
H22_6 H 0.1291 0.7160 0.3236
H23_6 H 0.1371 0.7233 0.3527
C35_6 C 0.09136(11) 0.68938(15) 0.37215(8)
H24_6 H 0.0883 0.6707 0.3735
H25_6 H 0.0751 0.6982 0.3678
H26_6 H 0.0978 0.6959 0.3888
C36_6 C 0.07387(12) 0.65879(13) 0.27992(9)
H27_6 H 0.0643 0.6518 0.2658
Y2_11 Y -0.0000 0.73311(4) 0.31346(6)
O7_6 O 0.02996(13) 0.76428(17) 0.31616(17)
O8_6 O 0.0284(3) 0.7976(3) 0.2901(3)
C37_6 C 0.03626(10) 0.78725(14) 0.30753(17)
C38_6 C 0.06396(9) 0.79329(10) 0.31657(12)
C39_6 C 0.07155(7) 0.81533(10) 0.31079(11)
H28_6 H 0.0598 0.8278 0.3039
C40_6 C 0.10095(7) 0.82251(8) 0.31492(8)
C41_6 C 0.11239(9) 0.84996(9) 0.30514(10)
C42_6 C 0.13205(8) 0.85030(10) 0.32821(10)
C43_6 C 0.13296(8) 0.83157(11) 0.34857(9)
C44_6 C 0.10943(8) 0.81481(8) 0.33854(8)
C45_6 C 0.10104(12) 0.78944(11) 0.35604(11)
H29_6 H 0.1095 0.7821 0.3707
C46_6 C 0.12268(12) 0.84134(13) 0.28189(9)
H30_6 H 0.1092 0.8417 0.2685
H31_6 H 0.1291 0.8236 0.2840
H32_6 H 0.1371 0.8527 0.2767
C47_6 C 0.09136(11) 0.87215(8) 0.31062(15)
H33_6 H 0.0883 0.8735 0.3293
H34_6 H 0.0751 0.8678 0.3018
H35_6 H 0.0978 0.8888 0.3041
C48_6 C 0.07387(12) 0.77992(9) 0.34121(13)
H36_6 H 0.0643 0.7658 0.3482
O9_6 O 0.18384(17) 0.97004(13) 0.26428(17)
O10_6 O 0.2099(3) 0.9716(3) 0.2976(3)
C49_6 C 0.19247(17) 0.96374(10) 0.28725(14)
C50_6 C 0.18343(12) 0.93604(9) 0.29329(10)
C51_6 C 0.18921(11) 0.92845(7) 0.31533(10)
H37_6 H 0.1961 0.9402 0.3278
C52_6 C 0.18508(8) 0.89905(7) 0.32251(8)
C53_6 C 0.19486(10) 0.88761(9) 0.34996(9)
C54_6 C 0.17179(10) 0.86795(8) 0.35030(10)
C55_6 C 0.15143(9) 0.86704(8) 0.33157(11)
C56_6 C 0.16146(8) 0.89057(8) 0.31481(8)
C57_6 C 0.14396(11) 0.89896(12) 0.28944(11)
H38_6 H 0.1293 0.8905 0.2821
C58_6 C 0.21811(9) 0.87732(12) 0.34134(13)
H39_6 H 0.2315 0.8908 0.3417
H40_6 H 0.2160 0.8709 0.3236
H41_6 H 0.2233 0.8629 0.3527
C59_6 C 0.18938(15) 0.90864(11) 0.37215(8)
H42_6 H 0.1707 0.9117 0.3735
H43_6 H 0.1982 0.9249 0.3678
H44_6 H 0.1959 0.9022 0.3888
C60_6 C 0.15879(13) 0.92613(12) 0.27992(9)
H45_6 H 0.1518 0.9357 0.2658
O11_6 O 0.23572(17) 0.81616(17) 0.47004(13)
O12_6 O 0.2024(3) 0.7901(3) 0.4716(3)
C61_6 C 0.21275(14) 0.80753(17) 0.46374(10)
C62_6 C 0.20671(10) 0.81657(12) 0.43604(9)
C63_6 C 0.18467(10) 0.81079(11) 0.42845(7)
H46_6 H 0.1722 0.8039 0.4402
C64_6 C 0.17749(8) 0.81492(8) 0.39905(7)
C65_6 C 0.15004(9) 0.80514(10) 0.38761(9)
C66_6 C 0.14970(10) 0.82821(10) 0.36795(8)
C67_6 C 0.16843(11) 0.84857(9) 0.36704(8)
C68_6 C 0.18519(8) 0.83854(8) 0.39057(8)
C69_6 C 0.21056(11) 0.85604(11) 0.39896(12)
H47_6 H 0.2179 0.8707 0.3905
C70_6 C 0.15866(13) 0.78189(9) 0.37732(12)
H48_6 H 0.1583 0.7685 0.3908
H49_6 H 0.1764 0.7840 0.3709
H50_6 H 0.1473 0.7767 0.3629
C71_6 C 0.12785(8) 0.81062(15) 0.40864(11)
H51_6 H 0.1265 0.8293 0.4117
H52_6 H 0.1322 0.8018 0.4249
H53_6 H 0.1112 0.8041 0.4022
C72_6 C 0.22008(9) 0.84121(13) 0.42613(12)
H54_6 H 0.2342 0.8482 0.4357
Y3_11 Y 0.0000 0.81346(6) 0.26689(4)
Y4_6 Y 0.26689(4) 0.5000 0.31346(6)
Y5_12 Y 0.18654(6) 1.0000 0.23311(4)
Y6_6 Y 0.23311(4) 0.68654(6) 0.5000
Y9_12 Y 0.23311(4) 1.0000 0.31346(6)
Y10_6 Y 0.26689(4) 0.81346(6) 0.5000
O13_6 O 0.02996(13) 0.81616(17) 0.23572(17)
O14_6 O 0.18384(17) 0.73572(17) 0.52996(13)
O19_6 O 0.2024(3) 0.7901(3) 0.5284(3)
Y2_12 Y 1.0000 0.73311(4) 0.31346(6)
Y3_12 Y 1.0000 0.81346(6) 0.26689(4)
O15_6 O 0.97004(13) 0.76428(17) 0.31616(17)
O16_6 O 0.97004(13) 0.81616(17) 0.23572(17)
O17_6 O 0.9716(3) 0.7976(3) 0.2901(3)
O18_6 O 0.9716(3) 0.7099(3) 0.2976(3)
Y2_13 Y 0.0000 0.73311(4) 0.68654(6)
Y3_13 Y 0.0000 0.81346(6) 0.73311(4)
O15_7 O 0.02996(13) 0.76428(17) 0.68384(17)
O16_7 O 0.02996(13) 0.81616(17) 0.76428(17)
O17_7 O 0.0284(3) 0.7976(3) 0.7099(3)
O18_7 O 0.0284(3) 0.7099(3) 0.7024(3)
Y5_13 Y 0.81346(6) 0.0000 0.76689(4)
Y9_13 Y 0.76689(4) 0.0000 0.68654(6)
Y1_7 Y 0.81346(6) 0.76689(4) 0.5000
O1_7 O 0.81616(17) 0.73572(17) 0.52996(13)
O2_7 O 0.7901(3) 0.7024(3) 0.5284(3)
C1_7 C 0.80753(17) 0.71275(14) 0.53626(10)
C2_7 C 0.81657(12) 0.70671(10) 0.56396(9)
C3_7 C 0.81079(11) 0.68467(10) 0.57155(7)
H1_7 H 0.8039 0.6722 0.5598
C4_7 C 0.81492(8) 0.67749(8) 0.60095(7)
C5_7 C 0.80514(10) 0.65004(9) 0.61239(9)
C6_7 C 0.82821(10) 0.64970(10) 0.63205(8)
C7_7 C 0.84857(9) 0.66843(11) 0.63296(8)
C8_7 C 0.83854(8) 0.68519(8) 0.60943(8)
C9_7 C 0.85604(11) 0.71056(11) 0.60104(12)
H2_7 H 0.8707 0.7179 0.6095
C10_7 C 0.78189(9) 0.65866(13) 0.62268(12)
H3_7 H 0.7685 0.6583 0.6092
H4_7 H 0.7840 0.6764 0.6291
H5_7 H 0.7767 0.6473 0.6371
C11_7 C 0.81062(15) 0.62785(8) 0.59136(11)
H6_7 H 0.8293 0.6265 0.5883
H7_7 H 0.8018 0.6322 0.5751
H8_7 H 0.8041 0.6112 0.5978
C12_7 C 0.84121(13) 0.72008(9) 0.57387(12)
H9_7 H 0.8482 0.7342 0.5643
O3_7 O 0.76428(17) 0.52996(13) 0.68384(17)
O4_7 O 0.7976(3) 0.5284(3) 0.7099(3)
C13_7 C 0.78725(14) 0.53626(10) 0.69247(17)
C14_7 C 0.79329(10) 0.56396(9) 0.68343(12)
C15_7 C 0.81533(10) 0.57155(7) 0.68921(11)
H10_7 H 0.8278 0.5598 0.6961
C16_7 C 0.82251(8) 0.60095(7) 0.68508(8)
C17_7 C 0.84996(9) 0.61239(9) 0.69486(10)
C18_7 C 0.85030(10) 0.63205(8) 0.67179(10)
C19_7 C 0.83157(11) 0.63296(8) 0.65143(9)
C20_7 C 0.81481(8) 0.60943(8) 0.66146(8)
C21_7 C 0.78944(11) 0.60104(12) 0.64396(11)
H11_7 H 0.7821 0.6095 0.6293
C22_7 C 0.84134(13) 0.62268(12) 0.71811(9)
H12_7 H 0.8417 0.6092 0.7315
H13_7 H 0.8236 0.6291 0.7160
H14_7 H 0.8527 0.6371 0.7233
C23_7 C 0.87215(8) 0.59136(11) 0.68938(15)
H15_7 H 0.8735 0.5883 0.6707
H16_7 H 0.8678 0.5751 0.6982
H17_7 H 0.8888 0.5978 0.6959
C24_7 C 0.77992(9) 0.57387(12) 0.65879(13)
H18_7 H 0.7658 0.5643 0.6518
O5_7 O 0.97004(13) 0.68384(17) 0.73572(17)
O6_7 O 0.9716(3) 0.7099(3) 0.7024(3)
C25_7 C 0.96374(10) 0.69247(17) 0.71275(14)
C26_7 C 0.93604(9) 0.68343(12) 0.70671(10)
C27_7 C 0.92845(7) 0.68921(11) 0.68467(10)
H19_7 H 0.9402 0.6961 0.6722
C28_7 C 0.89905(7) 0.68508(8) 0.67749(8)
C29_7 C 0.88761(9) 0.69486(10) 0.65004(9)
C30_7 C 0.86795(8) 0.67179(10) 0.64970(10)
C31_7 C 0.86704(8) 0.65143(9) 0.66843(11)
C32_7 C 0.89057(8) 0.66146(8) 0.68519(8)
C33_7 C 0.89896(12) 0.64396(11) 0.71056(11)
H20_7 H 0.8905 0.6293 0.7179
C34_7 C 0.87732(12) 0.71811(9) 0.65866(13)
H21_7 H 0.8908 0.7315 0.6583
H22_7 H 0.8709 0.7160 0.6764
H23_7 H 0.8629 0.7233 0.6473
C35_7 C 0.90864(11) 0.68938(15) 0.62785(8)
H24_7 H 0.9117 0.6707 0.6265
H25_7 H 0.9249 0.6982 0.6322
H26_7 H 0.9022 0.6959 0.6112
C36_7 C 0.92613(12) 0.65879(13) 0.72008(9)
H27_7 H 0.9357 0.6518 0.7342
Y2_14 Y 1.0000 0.73311(4) 0.68654(6)
O7_7 O 0.97004(13) 0.76428(17) 0.68384(17)
O8_7 O 0.9716(3) 0.7976(3) 0.7099(3)
C37_7 C 0.96374(10) 0.78725(14) 0.69247(17)
C38_7 C 0.93604(9) 0.79329(10) 0.68343(12)
C39_7 C 0.92845(7) 0.81533(10) 0.68921(11)
H28_7 H 0.9402 0.8278 0.6961
C40_7 C 0.89905(7) 0.82251(8) 0.68508(8)
C41_7 C 0.88761(9) 0.84996(9) 0.69486(10)
C42_7 C 0.86795(8) 0.85030(10) 0.67179(10)
C43_7 C 0.86704(8) 0.83157(11) 0.65143(9)
C44_7 C 0.89057(8) 0.81481(8) 0.66146(8)
C45_7 C 0.89896(12) 0.78944(11) 0.64396(11)
H29_7 H 0.8905 0.7821 0.6293
C46_7 C 0.87732(12) 0.84134(13) 0.71811(9)
H30_7 H 0.8908 0.8417 0.7315
H31_7 H 0.8709 0.8236 0.7160
H32_7 H 0.8629 0.8527 0.7233
C47_7 C 0.90864(11) 0.87215(8) 0.68938(15)
H33_7 H 0.9117 0.8735 0.6707
H34_7 H 0.9249 0.8678 0.6982
H35_7 H 0.9022 0.8888 0.6959
C48_7 C 0.92613(12) 0.77992(9) 0.65879(13)
H36_7 H 0.9357 0.7658 0.6518
O9_7 O 0.81616(17) 0.97004(13) 0.73572(17)
O10_7 O 0.7901(3) 0.9716(3) 0.7024(3)
C49_7 C 0.80753(17) 0.96374(10) 0.71275(14)
C50_7 C 0.81657(12) 0.93604(9) 0.70671(10)
C51_7 C 0.81079(11) 0.92845(7) 0.68467(10)
H37_7 H 0.8039 0.9402 0.6722
C52_7 C 0.81492(8) 0.89905(7) 0.67749(8)
C53_7 C 0.80514(10) 0.88761(9) 0.65004(9)
C54_7 C 0.82821(10) 0.86795(8) 0.64970(10)
C55_7 C 0.84857(9) 0.86704(8) 0.66843(11)
C56_7 C 0.83854(8) 0.89057(8) 0.68519(8)
C57_7 C 0.85604(11) 0.89896(12) 0.71056(11)
H38_7 H 0.8707 0.8905 0.7179
C58_7 C 0.78189(9) 0.87732(12) 0.65866(13)
H39_7 H 0.7685 0.8908 0.6583
H40_7 H 0.7840 0.8709 0.6764
H41_7 H 0.7767 0.8629 0.6473
C59_7 C 0.81062(15) 0.90864(11) 0.62785(8)
H42_7 H 0.8293 0.9117 0.6265
H43_7 H 0.8018 0.9249 0.6322
H44_7 H 0.8041 0.9022 0.6112
C60_7 C 0.84121(13) 0.92613(12) 0.72008(9)
H45_7 H 0.8482 0.9357 0.7342
O11_7 O 0.76428(17) 0.81616(17) 0.52996(13)
O12_7 O 0.7976(3) 0.7901(3) 0.5284(3)
C61_7 C 0.78725(14) 0.80753(17) 0.53626(10)
C62_7 C 0.79329(10) 0.81657(12) 0.56396(9)
C63_7 C 0.81533(10) 0.81079(11) 0.57155(7)
H46_7 H 0.8278 0.8039 0.5598
C64_7 C 0.82251(8) 0.81492(8) 0.60095(7)
C65_7 C 0.84996(9) 0.80514(10) 0.61239(9)
C66_7 C 0.85030(10) 0.82821(10) 0.63205(8)
C67_7 C 0.83157(11) 0.84857(9) 0.63296(8)
C68_7 C 0.81481(8) 0.83854(8) 0.60943(8)
C69_7 C 0.78944(11) 0.85604(11) 0.60104(12)
H47_7 H 0.7821 0.8707 0.6095
C70_7 C 0.84134(13) 0.78189(9) 0.62268(12)
H48_7 H 0.8417 0.7685 0.6092
H49_7 H 0.8236 0.7840 0.6291
H50_7 H 0.8527 0.7767 0.6371
C71_7 C 0.87215(8) 0.81062(15) 0.59136(11)
H51_7 H 0.8735 0.8293 0.5883
H52_7 H 0.8678 0.8018 0.5751
H53_7 H 0.8888 0.8041 0.5978
C72_7 C 0.77992(9) 0.84121(13) 0.57387(12)
H54_7 H 0.7658 0.8482 0.5643
Y3_14 Y 1.0000 0.81346(6) 0.73311(4)
Y4_7 Y 0.73311(4) 0.5000 0.68654(6)
Y5_14 Y 0.81346(6) 1.0000 0.76689(4)
Y6_7 Y 0.76689(4) 0.68654(6) 0.5000
Y9_14 Y 0.76689(4) 1.0000 0.68654(6)
Y10_7 Y 0.73311(4) 0.81346(6) 0.5000
O13_7 O 0.97004(13) 0.81616(17) 0.76428(17)
O14_7 O 0.81616(17) 0.73572(17) 0.47004(13)
O19_7 O 0.7976(3) 0.7901(3) 0.4716(3)
Y2_15 Y 0.0000 0.26689(4) 0.31346(6)
Y3_15 Y 0.0000 0.18654(6) 0.26689(4)
O15_8 O 0.02996(13) 0.23572(17) 0.31616(17)
O16_8 O 0.02996(13) 0.18384(17) 0.23572(17)
O17_8 O 0.0284(3) 0.2024(3) 0.2901(3)
O18_8 O 0.0284(3) 0.2901(3) 0.2976(3)
Y1_8 Y 0.81346(6) 0.23311(4) 0.5000
O1_8 O 0.81616(17) 0.26428(17) 0.47004(13)
O2_8 O 0.7901(3) 0.2976(3) 0.4716(3)
C1_8 C 0.80753(17) 0.28725(14) 0.46374(10)
C2_8 C 0.81657(12) 0.29329(10) 0.43604(9)
C3_8 C 0.81079(11) 0.31533(10) 0.42845(7)
H1_8 H 0.8039 0.3278 0.4402
C4_8 C 0.81492(8) 0.32251(8) 0.39905(7)
C5_8 C 0.80514(10) 0.34996(9) 0.38761(9)
C6_8 C 0.82821(10) 0.35030(10) 0.36795(8)
C7_8 C 0.84857(9) 0.33157(11) 0.36704(8)
C8_8 C 0.83854(8) 0.31481(8) 0.39057(8)
C9_8 C 0.85604(11) 0.28944(11) 0.39896(12)
H2_8 H 0.8707 0.2821 0.3905
C10_8 C 0.78189(9) 0.34134(13) 0.37732(12)
H3_8 H 0.7685 0.3417 0.3908
H4_8 H 0.7840 0.3236 0.3709
H5_8 H 0.7767 0.3527 0.3629
C11_8 C 0.81062(15) 0.37215(8) 0.40864(11)
H6_8 H 0.8293 0.3735 0.4117
H7_8 H 0.8018 0.3678 0.4249
H8_8 H 0.8041 0.3888 0.4022
C12_8 C 0.84121(13) 0.27992(9) 0.42613(12)
H9_8 H 0.8482 0.2658 0.4357
O3_8 O 0.76428(17) 0.47004(13) 0.31616(17)
O4_8 O 0.7976(3) 0.4716(3) 0.2901(3)
C13_8 C 0.78725(14) 0.46374(10) 0.30753(17)
C14_8 C 0.79329(10) 0.43604(9) 0.31657(12)
C15_8 C 0.81533(10) 0.42845(7) 0.31079(11)
H10_8 H 0.8278 0.4402 0.3039
C16_8 C 0.82251(8) 0.39905(7) 0.31492(8)
C17_8 C 0.84996(9) 0.38761(9) 0.30514(10)
C18_8 C 0.85030(10) 0.36795(8) 0.32821(10)
C19_8 C 0.83157(11) 0.36704(8) 0.34857(9)
C20_8 C 0.81481(8) 0.39057(8) 0.33854(8)
C21_8 C 0.78944(11) 0.39896(12) 0.35604(11)
H11_8 H 0.7821 0.3905 0.3707
C22_8 C 0.84134(13) 0.37732(12) 0.28189(9)
H12_8 H 0.8417 0.3908 0.2685
H13_8 H 0.8236 0.3709 0.2840
H14_8 H 0.8527 0.3629 0.2767
C23_8 C 0.87215(8) 0.40864(11) 0.31062(15)
H15_8 H 0.8735 0.4117 0.3293
H16_8 H 0.8678 0.4249 0.3018
H17_8 H 0.8888 0.4022 0.3041
C24_8 C 0.77992(9) 0.42613(12) 0.34121(13)
H18_8 H 0.7658 0.4357 0.3482
O5_8 O 0.97004(13) 0.31616(17) 0.26428(17)
O6_8 O 0.9716(3) 0.2901(3) 0.2976(3)
C25_8 C 0.96374(10) 0.30753(17) 0.28725(14)
C26_8 C 0.93604(9) 0.31657(12) 0.29329(10)
C27_8 C 0.92845(7) 0.31079(11) 0.31533(10)
H19_8 H 0.9402 0.3039 0.3278
C28_8 C 0.89905(7) 0.31492(8) 0.32251(8)
C29_8 C 0.88761(9) 0.30514(10) 0.34996(9)
C30_8 C 0.86795(8) 0.32821(10) 0.35030(10)
C31_8 C 0.86704(8) 0.34857(9) 0.33157(11)
C32_8 C 0.89057(8) 0.33854(8) 0.31481(8)
C33_8 C 0.89896(12) 0.35604(11) 0.28944(11)
H20_8 H 0.8905 0.3707 0.2821
C34_8 C 0.87732(12) 0.28189(9) 0.34134(13)
H21_8 H 0.8908 0.2685 0.3417
H22_8 H 0.8709 0.2840 0.3236
H23_8 H 0.8629 0.2767 0.3527
C35_8 C 0.90864(11) 0.31062(15) 0.37215(8)
H24_8 H 0.9117 0.3293 0.3735
H25_8 H 0.9249 0.3018 0.3678
H26_8 H 0.9022 0.3041 0.3888
C36_8 C 0.92613(12) 0.34121(13) 0.27992(9)
H27_8 H 0.9357 0.3482 0.2658
Y2_16 Y 1.0000 0.26689(4) 0.31346(6)
O7_8 O 0.97004(13) 0.23572(17) 0.31616(17)
O8_8 O 0.9716(3) 0.2024(3) 0.2901(3)
C37_8 C 0.96374(10) 0.21275(14) 0.30753(17)
C38_8 C 0.93604(9) 0.20671(10) 0.31657(12)
C39_8 C 0.92845(7) 0.18467(10) 0.31079(11)
H28_8 H 0.9402 0.1722 0.3039
C40_8 C 0.89905(7) 0.17749(8) 0.31492(8)
C41_8 C 0.88761(9) 0.15004(9) 0.30514(10)
C42_8 C 0.86795(8) 0.14970(10) 0.32821(10)
C43_8 C 0.86704(8) 0.16843(11) 0.34857(9)
C44_8 C 0.89057(8) 0.18519(8) 0.33854(8)
C45_8 C 0.89896(12) 0.21056(11) 0.35604(11)
H29_8 H 0.8905 0.2179 0.3707
C46_8 C 0.87732(12) 0.15866(13) 0.28189(9)
H30_8 H 0.8908 0.1583 0.2685
H31_8 H 0.8709 0.1764 0.2840
H32_8 H 0.8629 0.1473 0.2767
C47_8 C 0.90864(11) 0.12785(8) 0.31062(15)
H33_8 H 0.9117 0.1265 0.3293
H34_8 H 0.9249 0.1322 0.3018
H35_8 H 0.9022 0.1112 0.3041
C48_8 C 0.92613(12) 0.22008(9) 0.34121(13)
H36_8 H 0.9357 0.2342 0.3482
O9_8 O 0.81616(17) 0.02996(13) 0.26428(17)
O10_8 O 0.7901(3) 0.0284(3) 0.2976(3)
C49_8 C 0.80753(17) 0.03626(10) 0.28725(14)
C50_8 C 0.81657(12) 0.06396(9) 0.29329(10)
C51_8 C 0.81079(11) 0.07155(7) 0.31533(10)
H37_8 H 0.8039 0.0598 0.3278
C52_8 C 0.81492(8) 0.10095(7) 0.32251(8)
C53_8 C 0.80514(10) 0.11239(9) 0.34996(9)
C54_8 C 0.82821(10) 0.13205(8) 0.35030(10)
C55_8 C 0.84857(9) 0.13296(8) 0.33157(11)
C56_8 C 0.83854(8) 0.10943(8) 0.31481(8)
C57_8 C 0.85604(11) 0.10104(12) 0.28944(11)
H38_8 H 0.8707 0.1095 0.2821
C58_8 C 0.78189(9) 0.12268(12) 0.34134(13)
H39_8 H 0.7685 0.1092 0.3417
H40_8 H 0.7840 0.1291 0.3236
H41_8 H 0.7767 0.1371 0.3527
C59_8 C 0.81062(15) 0.09136(11) 0.37215(8)
H42_8 H 0.8293 0.0883 0.3735
H43_8 H 0.8018 0.0751 0.3678
H44_8 H 0.8041 0.0978 0.3888
C60_8 C 0.84121(13) 0.07387(12) 0.27992(9)
H45_8 H 0.8482 0.0643 0.2658
O11_8 O 0.76428(17) 0.18384(17) 0.47004(13)
O12_8 O 0.7976(3) 0.2099(3) 0.4716(3)
C61_8 C 0.78725(14) 0.19247(17) 0.46374(10)
C62_8 C 0.79329(10) 0.18343(12) 0.43604(9)
C63_8 C 0.81533(10) 0.18921(11) 0.42845(7)
H46_8 H 0.8278 0.1961 0.4402
C64_8 C 0.82251(8) 0.18508(8) 0.39905(7)
C65_8 C 0.84996(9) 0.19486(10) 0.38761(9)
C66_8 C 0.85030(10) 0.17179(10) 0.36795(8)
C67_8 C 0.83157(11) 0.15143(9) 0.36704(8)
C68_8 C 0.81481(8) 0.16146(8) 0.39057(8)
C69_8 C 0.78944(11) 0.14396(11) 0.39896(12)
H47_8 H 0.7821 0.1293 0.3905
C70_8 C 0.84134(13) 0.21811(9) 0.37732(12)
H48_8 H 0.8417 0.2315 0.3908
H49_8 H 0.8236 0.2160 0.3709
H50_8 H 0.8527 0.2233 0.3629
C71_8 C 0.87215(8) 0.18938(15) 0.40864(11)
H51_8 H 0.8735 0.1707 0.4117
H52_8 H 0.8678 0.1982 0.4249
H53_8 H 0.8888 0.1959 0.4022
C72_8 C 0.77992(9) 0.15879(13) 0.42613(12)
H54_8 H 0.7658 0.1518 0.4357
Y3_16 Y 1.0000 0.18654(6) 0.26689(4)
Y4_8 Y 0.73311(4) 0.5000 0.31346(6)
Y5_15 Y 0.81346(6) -0.0000 0.23311(4)
Y6_8 Y 0.76689(4) 0.31346(6) 0.5000
Y9_15 Y 0.76689(4) 0.0000 0.31346(6)
Y10_8 Y 0.73311(4) 0.18654(6) 0.5000
O13_8 O 0.97004(13) 0.18384(17) 0.23572(17)
O14_8 O 0.81616(17) 0.26428(17) 0.52996(13)
O19_8 O 0.7976(3) 0.2099(3) 0.5284(3)
Y5_16 Y 0.81346(6) 1.0000 0.23311(4)
Y9_16 Y 0.76689(4) 1.0000 0.31346(6)
Y1_9 Y 0.5000 0.18654(6) 0.23311(4)
O1_9 O 0.52996(13) 0.18384(17) 0.26428(17)
O2_9 O 0.5284(3) 0.2099(3) 0.2976(3)
C1_9 C 0.53626(10) 0.19247(17) 0.28725(14)
C2_9 C 0.56396(9) 0.18343(12) 0.29329(10)
C3_9 C 0.57155(7) 0.18921(11) 0.31533(10)
H1_9 H 0.5598 0.1961 0.3278
C4_9 C 0.60095(7) 0.18508(8) 0.32251(8)
C5_9 C 0.61239(9) 0.19486(10) 0.34996(9)
C6_9 C 0.63205(8) 0.17179(10) 0.35030(10)
C7_9 C 0.63296(8) 0.15143(9) 0.33157(11)
C8_9 C 0.60943(8) 0.16146(8) 0.31481(8)
C9_9 C 0.60104(12) 0.14396(11) 0.28944(11)
H2_9 H 0.6095 0.1293 0.2821
C10_9 C 0.62268(12) 0.21811(9) 0.34134(13)
H3_9 H 0.6092 0.2315 0.3417
H4_9 H 0.6291 0.2160 0.3236
H5_9 H 0.6371 0.2233 0.3527
C11_9 C 0.59136(11) 0.18938(15) 0.37215(8)
H6_9 H 0.5883 0.1707 0.3735
H7_9 H 0.5751 0.1982 0.3678
H8_9 H 0.5978 0.1959 0.3888
C12_9 C 0.57387(12) 0.15879(13) 0.27992(9)
H9_9 H 0.5643 0.1518 0.2658
O3_9 O 0.68384(17) 0.23572(17) 0.47004(13)
O4_9 O 0.7099(3) 0.2024(3) 0.4716(3)
C13_9 C 0.69247(17) 0.21275(14) 0.46374(10)
C14_9 C 0.68343(12) 0.20671(10) 0.43604(9)
C15_9 C 0.68921(11) 0.18467(10) 0.42845(7)
H10_9 H 0.6961 0.1722 0.4402
C16_9 C 0.68508(8) 0.17749(8) 0.39905(7)
C17_9 C 0.69486(10) 0.15004(9) 0.38761(9)
C18_9 C 0.67179(10) 0.14970(10) 0.36795(8)
C19_9 C 0.65143(9) 0.16843(11) 0.36704(8)
C20_9 C 0.66146(8) 0.18519(8) 0.39057(8)
C21_9 C 0.64396(11) 0.21056(11) 0.39896(12)
H11_9 H 0.6293 0.2179 0.3905
C22_9 C 0.71811(9) 0.15866(13) 0.37732(12)
H12_9 H 0.7315 0.1583 0.3908
H13_9 H 0.7160 0.1764 0.3709
H14_9 H 0.7233 0.1473 0.3629
C23_9 C 0.68938(15) 0.12785(8) 0.40864(11)
H15_9 H 0.6707 0.1265 0.4117
H16_9 H 0.6982 0.1322 0.4249
H17_9 H 0.6959 0.1112 0.4022
C24_9 C 0.65879(13) 0.22008(9) 0.42613(12)
H18_9 H 0.6518 0.2342 0.4357
O5_9 O 0.73572(17) 0.02996(13) 0.31616(17)
O6_9 O 0.7024(3) 0.0284(3) 0.2901(3)
C25_9 C 0.71275(14) 0.03626(10) 0.30753(17)
C26_9 C 0.70671(10) 0.06396(9) 0.31657(12)
C27_9 C 0.68467(10) 0.07155(7) 0.31079(11)
H19_9 H 0.6722 0.0598 0.3039
C28_9 C 0.67749(8) 0.10095(7) 0.31492(8)
C29_9 C 0.65004(9) 0.11239(9) 0.30514(10)
C30_9 C 0.64970(10) 0.13205(8) 0.32821(10)
C31_9 C 0.66843(11) 0.13296(8) 0.34857(9)
C32_9 C 0.68519(8) 0.10943(8) 0.33854(8)
C33_9 C 0.71056(11) 0.10104(12) 0.35604(11)
H20_9 H 0.7179 0.1095 0.3707
C34_9 C 0.65866(13) 0.12268(12) 0.28189(9)
H21_9 H 0.6583 0.1092 0.2685
H22_9 H 0.6764 0.1291 0.2840
H23_9 H 0.6473 0.1371 0.2767
C35_9 C 0.62785(8) 0.09136(11) 0.31062(15)
H24_9 H 0.6265 0.0883 0.3293
H25_9 H 0.6322 0.0751 0.3018
H26_9 H 0.6112 0.0978 0.3041
C36_9 C 0.72008(9) 0.07387(12) 0.34121(13)
H27_9 H 0.7342 0.0643 0.3482
Y2_17 Y 0.68654(6) 0.0000 0.26689(4)
O7_9 O 0.68384(17) 0.02996(13) 0.23572(17)
O8_9 O 0.7099(3) 0.0284(3) 0.2024(3)
C37_9 C 0.69247(17) 0.03626(10) 0.21275(14)
C38_9 C 0.68343(12) 0.06396(9) 0.20671(10)
C39_9 C 0.68921(11) 0.07155(7) 0.18467(10)
H28_9 H 0.6961 0.0598 0.1722
C40_9 C 0.68508(8) 0.10095(7) 0.17749(8)
C41_9 C 0.69486(10) 0.11239(9) 0.15004(9)
C42_9 C 0.67179(10) 0.13205(8) 0.14970(10)
C43_9 C 0.65143(9) 0.13296(8) 0.16843(11)
C44_9 C 0.66146(8) 0.10943(8) 0.18519(8)
C45_9 C 0.64396(11) 0.10104(12) 0.21056(11)
H29_9 H 0.6293 0.1095 0.2179
C46_9 C 0.71811(9) 0.12268(12) 0.15866(13)
H30_9 H 0.7315 0.1092 0.1583
H31_9 H 0.7160 0.1291 0.1764
H32_9 H 0.7233 0.1371 0.1473
C47_9 C 0.68938(15) 0.09136(11) 0.12785(8)
H33_9 H 0.6707 0.0883 0.1265
H34_9 H 0.6982 0.0751 0.1322
H35_9 H 0.6959 0.0978 0.1112
C48_9 C 0.65879(13) 0.07387(12) 0.22008(9)
H36_9 H 0.6518 0.0643 0.2342
O9_9 O 0.73572(17) 0.18384(17) 0.02996(13)
O10_9 O 0.7024(3) 0.2099(3) 0.0284(3)
C49_9 C 0.71275(14) 0.19247(17) 0.03626(10)
C50_9 C 0.70671(10) 0.18343(12) 0.06396(9)
C51_9 C 0.68467(10) 0.18921(11) 0.07155(7)
H37_9 H 0.6722 0.1961 0.0598
C52_9 C 0.67749(8) 0.18508(8) 0.10095(7)
C53_9 C 0.65004(9) 0.19486(10) 0.11239(9)
C54_9 C 0.64970(10) 0.17179(10) 0.13205(8)
C55_9 C 0.66843(11) 0.15143(9) 0.13296(8)
C56_9 C 0.68519(8) 0.16146(8) 0.10943(8)
C57_9 C 0.71056(11) 0.14396(11) 0.10104(12)
H38_9 H 0.7179 0.1293 0.1095
C58_9 C 0.65866(13) 0.21811(9) 0.12268(12)
H39_9 H 0.6583 0.2315 0.1092
H40_9 H 0.6764 0.2160 0.1291
H41_9 H 0.6473 0.2233 0.1371
C59_9 C 0.62785(8) 0.18938(15) 0.09136(11)
H42_9 H 0.6265 0.1707 0.0883
H43_9 H 0.6322 0.1982 0.0751
H44_9 H 0.6112 0.1959 0.0978
C60_9 C 0.72008(9) 0.15879(13) 0.07387(12)
H45_9 H 0.7342 0.1518 0.0643
O11_9 O 0.52996(13) 0.23572(17) 0.18384(17)
O12_9 O 0.5284(3) 0.2024(3) 0.2099(3)
C61_9 C 0.53626(10) 0.21275(14) 0.19247(17)
C62_9 C 0.56396(9) 0.20671(10) 0.18343(12)
C63_9 C 0.57155(7) 0.18467(10) 0.18921(11)
H46_9 H 0.5598 0.1722 0.1961
C64_9 C 0.60095(7) 0.17749(8) 0.18508(8)
C65_9 C 0.61239(9) 0.15004(9) 0.19486(10)
C66_9 C 0.63205(8) 0.14970(10) 0.17179(10)
C67_9 C 0.63296(8) 0.16843(11) 0.15143(9)
C68_9 C 0.60943(8) 0.18519(8) 0.16146(8)
C69_9 C 0.60104(12) 0.21056(11) 0.14396(11)
H47_9 H 0.6095 0.2179 0.1293
C70_9 C 0.62268(12) 0.15866(13) 0.21811(9)
H48_9 H 0.6092 0.1583 0.2315
H49_9 H 0.6291 0.1764 0.2160
H50_9 H 0.6371 0.1473 0.2233
C71_9 C 0.59136(11) 0.12785(8) 0.18938(15)
H51_9 H 0.5883 0.1265 0.1707
H52_9 H 0.5751 0.1322 0.1982
H53_9 H 0.5978 0.1112 0.1959
C72_9 C 0.57387(12) 0.22008(9) 0.15879(13)
H54_9 H 0.5643 0.2342 0.1518
Y3_17 Y 0.73311(4) 0.0000 0.18654(6)
Y4_9 Y 0.68654(6) 0.26689(4) 0.5000
Y5_17 Y 0.76689(4) 0.18654(6) -0.0000
Y6_9 Y 0.5000 0.23311(4) 0.31346(6)
O13_9 O 0.76428(17) 0.02996(13) 0.18384(17)
O14_9 O 0.47004(13) 0.18384(17) 0.26428(17)
O19_9 O 0.4716(3) 0.2024(3) 0.2099(3)
Y5_18 Y 0.76689(4) 0.18654(6) 1.0000
Y2_18 Y 0.68654(6) 1.0000 0.26689(4)
Y3_18 Y 0.73311(4) 1.0000 0.18654(6)
O15_9 O 0.68384(17) 0.97004(13) 0.23572(17)
O16_9 O 0.76428(17) 0.97004(13) 0.18384(17)
O17_9 O 0.7099(3) 0.9716(3) 0.2024(3)
O18_9 O 0.7024(3) 0.9716(3) 0.2901(3)
Y5_19 Y 0.23311(4) 0.18654(6) 0.0000
Y1_10 Y 0.5000 0.18654(6) 0.76689(4)
O1_10 O 0.47004(13) 0.18384(17) 0.73572(17)
O2_10 O 0.4716(3) 0.2099(3) 0.7024(3)
C1_10 C 0.46374(10) 0.19247(17) 0.71275(14)
C2_10 C 0.43604(9) 0.18343(12) 0.70671(10)
C3_10 C 0.42845(7) 0.18921(11) 0.68467(10)
H1_10 H 0.4402 0.1961 0.6722
C4_10 C 0.39905(7) 0.18508(8) 0.67749(8)
C5_10 C 0.38761(9) 0.19486(10) 0.65004(9)
C6_10 C 0.36795(8) 0.17179(10) 0.64970(10)
C7_10 C 0.36704(8) 0.15143(9) 0.66843(11)
C8_10 C 0.39057(8) 0.16146(8) 0.68519(8)
C9_10 C 0.39896(12) 0.14396(11) 0.71056(11)
H2_10 H 0.3905 0.1293 0.7179
C10_10 C 0.37732(12) 0.21811(9) 0.65866(13)
H3_10 H 0.3908 0.2315 0.6583
H4_10 H 0.3709 0.2160 0.6764
H5_10 H 0.3629 0.2233 0.6473
C11_10 C 0.40864(11) 0.18938(15) 0.62785(8)
H6_10 H 0.4117 0.1707 0.6265
H7_10 H 0.4249 0.1982 0.6322
H8_10 H 0.4022 0.1959 0.6112
C12_10 C 0.42613(12) 0.15879(13) 0.72008(9)
H9_10 H 0.4357 0.1518 0.7342
O3_10 O 0.31616(17) 0.23572(17) 0.52996(13)
O4_10 O 0.2901(3) 0.2024(3) 0.5284(3)
C13_10 C 0.30753(17) 0.21275(14) 0.53626(10)
C14_10 C 0.31657(12) 0.20671(10) 0.56396(9)
C15_10 C 0.31079(11) 0.18467(10) 0.57155(7)
H10_10 H 0.3039 0.1722 0.5598
C16_10 C 0.31492(8) 0.17749(8) 0.60095(7)
C17_10 C 0.30514(10) 0.15004(9) 0.61239(9)
C18_10 C 0.32821(10) 0.14970(10) 0.63205(8)
C19_10 C 0.34857(9) 0.16843(11) 0.63296(8)
C20_10 C 0.33854(8) 0.18519(8) 0.60943(8)
C21_10 C 0.35604(11) 0.21056(11) 0.60104(12)
H11_10 H 0.3707 0.2179 0.6095
C22_10 C 0.28189(9) 0.15866(13) 0.62268(12)
H12_10 H 0.2685 0.1583 0.6092
H13_10 H 0.2840 0.1764 0.6291
H14_10 H 0.2767 0.1473 0.6371
C23_10 C 0.31062(15) 0.12785(8) 0.59136(11)
H15_10 H 0.3293 0.1265 0.5883
H16_10 H 0.3018 0.1322 0.5751
H17_10 H 0.3041 0.1112 0.5978
C24_10 C 0.34121(13) 0.22008(9) 0.57387(12)
H18_10 H 0.3482 0.2342 0.5643
O5_10 O 0.26428(17) 0.02996(13) 0.68384(17)
O6_10 O 0.2976(3) 0.0284(3) 0.7099(3)
C25_10 C 0.28725(14) 0.03626(10) 0.69247(17)
C26_10 C 0.29329(10) 0.06396(9) 0.68343(12)
C27_10 C 0.31533(10) 0.07155(7) 0.68921(11)
H19_10 H 0.3278 0.0598 0.6961
C28_10 C 0.32251(8) 0.10095(7) 0.68508(8)
C29_10 C 0.34996(9) 0.11239(9) 0.69486(10)
C30_10 C 0.35030(10) 0.13205(8) 0.67179(10)
C31_10 C 0.33157(11) 0.13296(8) 0.65143(9)
C32_10 C 0.31481(8) 0.10943(8) 0.66146(8)
C33_10 C 0.28944(11) 0.10104(12) 0.64396(11)
H20_10 H 0.2821 0.1095 0.6293
C34_10 C 0.34134(13) 0.12268(12) 0.71811(9)
H21_10 H 0.3417 0.1092 0.7315
H22_10 H 0.3236 0.1291 0.7160
H23_10 H 0.3527 0.1371 0.7233
C35_10 C 0.37215(8) 0.09136(11) 0.68938(15)
H24_10 H 0.3735 0.0883 0.6707
H25_10 H 0.3678 0.0751 0.6982
H26_10 H 0.3888 0.0978 0.6959
C36_10 C 0.27992(9) 0.07387(12) 0.65879(13)
H27_10 H 0.2658 0.0643 0.6518
Y2_19 Y 0.31346(6) 0.0000 0.73311(4)
O7_10 O 0.31616(17) 0.02996(13) 0.76428(17)
O8_10 O 0.2901(3) 0.0284(3) 0.7976(3)
C37_10 C 0.30753(17) 0.03626(10) 0.78725(14)
C38_10 C 0.31657(12) 0.06396(9) 0.79329(10)
C39_10 C 0.31079(11) 0.07155(7) 0.81533(10)
H28_10 H 0.3039 0.0598 0.8278
C40_10 C 0.31492(8) 0.10095(7) 0.82251(8)
C41_10 C 0.30514(10) 0.11239(9) 0.84996(9)
C42_10 C 0.32821(10) 0.13205(8) 0.85030(10)
C43_10 C 0.34857(9) 0.13296(8) 0.83157(11)
C44_10 C 0.33854(8) 0.10943(8) 0.81481(8)
C45_10 C 0.35604(11) 0.10104(12) 0.78944(11)
H29_10 H 0.3707 0.1095 0.7821
C46_10 C 0.28189(9) 0.12268(12) 0.84134(13)
H30_10 H 0.2685 0.1092 0.8417
H31_10 H 0.2840 0.1291 0.8236
H32_10 H 0.2767 0.1371 0.8527
C47_10 C 0.31062(15) 0.09136(11) 0.87215(8)
H33_10 H 0.3293 0.0883 0.8735
H34_10 H 0.3018 0.0751 0.8678
H35_10 H 0.3041 0.0978 0.8888
C48_10 C 0.34121(13) 0.07387(12) 0.77992(9)
H36_10 H 0.3482 0.0643 0.7658
O9_10 O 0.26428(17) 0.18384(17) 0.97004(13)
O10_10 O 0.2976(3) 0.2099(3) 0.9716(3)
C49_10 C 0.28725(14) 0.19247(17) 0.96374(10)
C50_10 C 0.29329(10) 0.18343(12) 0.93604(9)
C51_10 C 0.31533(10) 0.18921(11) 0.92845(7)
H37_10 H 0.3278 0.1961 0.9402
C52_10 C 0.32251(8) 0.18508(8) 0.89905(7)
C53_10 C 0.34996(9) 0.19486(10) 0.88761(9)
C54_10 C 0.35030(10) 0.17179(10) 0.86795(8)
C55_10 C 0.33157(11) 0.15143(9) 0.86704(8)
C56_10 C 0.31481(8) 0.16146(8) 0.89057(8)
C57_10 C 0.28944(11) 0.14396(11) 0.89896(12)
H38_10 H 0.2821 0.1293 0.8905
C58_10 C 0.34134(13) 0.21811(9) 0.87732(12)
H39_10 H 0.3417 0.2315 0.8908
H40_10 H 0.3236 0.2160 0.8709
H41_10 H 0.3527 0.2233 0.8629
C59_10 C 0.37215(8) 0.18938(15) 0.90864(11)
H42_10 H 0.3735 0.1707 0.9117
H43_10 H 0.3678 0.1982 0.9249
H44_10 H 0.3888 0.1959 0.9022
C60_10 C 0.27992(9) 0.15879(13) 0.92613(12)
H45_10 H 0.2658 0.1518 0.9357
O11_10 O 0.47004(13) 0.23572(17) 0.81616(17)
O12_10 O 0.4716(3) 0.2024(3) 0.7901(3)
C61_10 C 0.46374(10) 0.21275(14) 0.80753(17)
C62_10 C 0.43604(9) 0.20671(10) 0.81657(12)
C63_10 C 0.42845(7) 0.18467(10) 0.81079(11)
H46_10 H 0.4402 0.1722 0.8039
C64_10 C 0.39905(7) 0.17749(8) 0.81492(8)
C65_10 C 0.38761(9) 0.15004(9) 0.80514(10)
C66_10 C 0.36795(8) 0.14970(10) 0.82821(10)
C67_10 C 0.36704(8) 0.16843(11) 0.84857(9)
C68_10 C 0.39057(8) 0.18519(8) 0.83854(8)
C69_10 C 0.39896(12) 0.21056(11) 0.85604(11)
H47_10 H 0.3905 0.2179 0.8707
C70_10 C 0.37732(12) 0.15866(13) 0.78189(9)
H48_10 H 0.3908 0.1583 0.7685
H49_10 H 0.3709 0.1764 0.7840
H50_10 H 0.3629 0.1473 0.7767
C71_10 C 0.40864(11) 0.12785(8) 0.81062(15)
H51_10 H 0.4117 0.1265 0.8293
H52_10 H 0.4249 0.1322 0.8018
H53_10 H 0.4022 0.1112 0.8041
C72_10 C 0.42613(12) 0.22008(9) 0.84121(13)
H54_10 H 0.4357 0.2342 0.8482
Y3_19 Y 0.26689(4) 0.0000 0.81346(6)
Y4_10 Y 0.31346(6) 0.26689(4) 0.5000
Y5_20 Y 0.23311(4) 0.18654(6) 1.0000
Y6_10 Y 0.5000 0.23311(4) 0.68654(6)
O13_10 O 0.23572(17) 0.02996(13) 0.81616(17)
O14_10 O 0.52996(13) 0.18384(17) 0.73572(17)
O19_10 O 0.5284(3) 0.2024(3) 0.7901(3)
Y2_20 Y 0.31346(6) 1.0000 0.73311(4)
Y3_20 Y 0.26689(4) 1.0000 0.81346(6)
O15_10 O 0.31616(17) 0.97004(13) 0.76428(17)
O16_10 O 0.23572(17) 0.97004(13) 0.81616(17)
O17_10 O 0.2901(3) 0.9716(3) 0.7976(3)
O18_10 O 0.2976(3) 0.9716(3) 0.7099(3)
Y2_21 Y 0.68654(6) 0.0000 0.73311(4)
Y3_21 Y 0.73311(4) 0.0000 0.81346(6)
O15_11 O 0.68384(17) 0.02996(13) 0.76428(17)
O16_11 O 0.76428(17) 0.02996(13) 0.81616(17)
O17_11 O 0.7099(3) 0.0284(3) 0.7976(3)
O18_11 O 0.7024(3) 0.0284(3) 0.7099(3)
Y5_21 Y 0.76689(4) 0.81346(6) 0.0000
Y1_11 Y 0.5000 0.81346(6) 0.76689(4)
O1_11 O 0.52996(13) 0.81616(17) 0.73572(17)
O2_11 O 0.5284(3) 0.7901(3) 0.7024(3)
C1_11 C 0.53626(10) 0.80753(17) 0.71275(14)
C2_11 C 0.56396(9) 0.81657(12) 0.70671(10)
C3_11 C 0.57155(7) 0.81079(11) 0.68467(10)
H1_11 H 0.5598 0.8039 0.6722
C4_11 C 0.60095(7) 0.81492(8) 0.67749(8)
C5_11 C 0.61239(9) 0.80514(10) 0.65004(9)
C6_11 C 0.63205(8) 0.82821(10) 0.64970(10)
C7_11 C 0.63296(8) 0.84857(9) 0.66843(11)
C8_11 C 0.60943(8) 0.83854(8) 0.68519(8)
C9_11 C 0.60104(12) 0.85604(11) 0.71056(11)
H2_11 H 0.6095 0.8707 0.7179
C10_11 C 0.62268(12) 0.78189(9) 0.65866(13)
H3_11 H 0.6092 0.7685 0.6583
H4_11 H 0.6291 0.7840 0.6764
H5_11 H 0.6371 0.7767 0.6473
C11_11 C 0.59136(11) 0.81062(15) 0.62785(8)
H6_11 H 0.5883 0.8293 0.6265
H7_11 H 0.5751 0.8018 0.6322
H8_11 H 0.5978 0.8041 0.6112
C12_11 C 0.57387(12) 0.84121(13) 0.72008(9)
H9_11 H 0.5643 0.8482 0.7342
O3_11 O 0.68384(17) 0.76428(17) 0.52996(13)
O4_11 O 0.7099(3) 0.7976(3) 0.5284(3)
C13_11 C 0.69247(17) 0.78725(14) 0.53626(10)
C14_11 C 0.68343(12) 0.79329(10) 0.56396(9)
C15_11 C 0.68921(11) 0.81533(10) 0.57155(7)
H10_11 H 0.6961 0.8278 0.5598
C16_11 C 0.68508(8) 0.82251(8) 0.60095(7)
C17_11 C 0.69486(10) 0.84996(9) 0.61239(9)
C18_11 C 0.67179(10) 0.85030(10) 0.63205(8)
C19_11 C 0.65143(9) 0.83157(11) 0.63296(8)
C20_11 C 0.66146(8) 0.81481(8) 0.60943(8)
C21_11 C 0.64396(11) 0.78944(11) 0.60104(12)
H11_11 H 0.6293 0.7821 0.6095
C22_11 C 0.71811(9) 0.84134(13) 0.62268(12)
H12_11 H 0.7315 0.8417 0.6092
H13_11 H 0.7160 0.8236 0.6291
H14_11 H 0.7233 0.8527 0.6371
C23_11 C 0.68938(15) 0.87215(8) 0.59136(11)
H15_11 H 0.6707 0.8735 0.5883
H16_11 H 0.6982 0.8678 0.5751
H17_11 H 0.6959 0.8888 0.5978
C24_11 C 0.65879(13) 0.77992(9) 0.57387(12)
H18_11 H 0.6518 0.7658 0.5643
O5_11 O 0.73572(17) 0.97004(13) 0.68384(17)
O6_11 O 0.7024(3) 0.9716(3) 0.7099(3)
C25_11 C 0.71275(14) 0.96374(10) 0.69247(17)
C26_11 C 0.70671(10) 0.93604(9) 0.68343(12)
C27_11 C 0.68467(10) 0.92845(7) 0.68921(11)
H19_11 H 0.6722 0.9402 0.6961
C28_11 C 0.67749(8) 0.89905(7) 0.68508(8)
C29_11 C 0.65004(9) 0.88761(9) 0.69486(10)
C30_11 C 0.64970(10) 0.86795(8) 0.67179(10)
C31_11 C 0.66843(11) 0.86704(8) 0.65143(9)
C32_11 C 0.68519(8) 0.89057(8) 0.66146(8)
C33_11 C 0.71056(11) 0.89896(12) 0.64396(11)
H20_11 H 0.7179 0.8905 0.6293
C34_11 C 0.65866(13) 0.87732(12) 0.71811(9)
H21_11 H 0.6583 0.8908 0.7315
H22_11 H 0.6764 0.8709 0.7160
H23_11 H 0.6473 0.8629 0.7233
C35_11 C 0.62785(8) 0.90864(11) 0.68938(15)
H24_11 H 0.6265 0.9117 0.6707
H25_11 H 0.6322 0.9249 0.6982
H26_11 H 0.6112 0.9022 0.6959
C36_11 C 0.72008(9) 0.92613(12) 0.65879(13)
H27_11 H 0.7342 0.9357 0.6518
Y2_22 Y 0.68654(6) 1.0000 0.73311(4)
O7_11 O 0.68384(17) 0.97004(13) 0.76428(17)
O8_11 O 0.7099(3) 0.9716(3) 0.7976(3)
C37_11 C 0.69247(17) 0.96374(10) 0.78725(14)
C38_11 C 0.68343(12) 0.93604(9) 0.79329(10)
C39_11 C 0.68921(11) 0.92845(7) 0.81533(10)
H28_11 H 0.6961 0.9402 0.8278
C40_11 C 0.68508(8) 0.89905(7) 0.82251(8)
C41_11 C 0.69486(10) 0.88761(9) 0.84996(9)
C42_11 C 0.67179(10) 0.86795(8) 0.85030(10)
C43_11 C 0.65143(9) 0.86704(8) 0.83157(11)
C44_11 C 0.66146(8) 0.89057(8) 0.81481(8)
C45_11 C 0.64396(11) 0.89896(12) 0.78944(11)
H29_11 H 0.6293 0.8905 0.7821
C46_11 C 0.71811(9) 0.87732(12) 0.84134(13)
H30_11 H 0.7315 0.8908 0.8417
H31_11 H 0.7160 0.8709 0.8236
H32_11 H 0.7233 0.8629 0.8527
C47_11 C 0.68938(15) 0.90864(11) 0.87215(8)
H33_11 H 0.6707 0.9117 0.8735
H34_11 H 0.6982 0.9249 0.8678
H35_11 H 0.6959 0.9022 0.8888
C48_11 C 0.65879(13) 0.92613(12) 0.77992(9)
H36_11 H 0.6518 0.9357 0.7658
O9_11 O 0.73572(17) 0.81616(17) 0.97004(13)
O10_11 O 0.7024(3) 0.7901(3) 0.9716(3)
C49_11 C 0.71275(14) 0.80753(17) 0.96374(10)
C50_11 C 0.70671(10) 0.81657(12) 0.93604(9)
C51_11 C 0.68467(10) 0.81079(11) 0.92845(7)
H37_11 H 0.6722 0.8039 0.9402
C52_11 C 0.67749(8) 0.81492(8) 0.89905(7)
C53_11 C 0.65004(9) 0.80514(10) 0.88761(9)
C54_11 C 0.64970(10) 0.82821(10) 0.86795(8)
C55_11 C 0.66843(11) 0.84857(9) 0.86704(8)
C56_11 C 0.68519(8) 0.83854(8) 0.89057(8)
C57_11 C 0.71056(11) 0.85604(11) 0.89896(12)
H38_11 H 0.7179 0.8707 0.8905
C58_11 C 0.65866(13) 0.78189(9) 0.87732(12)
H39_11 H 0.6583 0.7685 0.8908
H40_11 H 0.6764 0.7840 0.8709
H41_11 H 0.6473 0.7767 0.8629
C59_11 C 0.62785(8) 0.81062(15) 0.90864(11)
H42_11 H 0.6265 0.8293 0.9117
H43_11 H 0.6322 0.8018 0.9249
H44_11 H 0.6112 0.8041 0.9022
C60_11 C 0.72008(9) 0.84121(13) 0.92613(12)
H45_11 H 0.7342 0.8482 0.9357
O11_11 O 0.52996(13) 0.76428(17) 0.81616(17)
O12_11 O 0.5284(3) 0.7976(3) 0.7901(3)
C61_11 C 0.53626(10) 0.78725(14) 0.80753(17)
C62_11 C 0.56396(9) 0.79329(10) 0.81657(12)
C63_11 C 0.57155(7) 0.81533(10) 0.81079(11)
H46_11 H 0.5598 0.8278 0.8039
C64_11 C 0.60095(7) 0.82251(8) 0.81492(8)
C65_11 C 0.61239(9) 0.84996(9) 0.80514(10)
C66_11 C 0.63205(8) 0.85030(10) 0.82821(10)
C67_11 C 0.63296(8) 0.83157(11) 0.84857(9)
C68_11 C 0.60943(8) 0.81481(8) 0.83854(8)
C69_11 C 0.60104(12) 0.78944(11) 0.85604(11)
H47_11 H 0.6095 0.7821 0.8707
C70_11 C 0.62268(12) 0.84134(13) 0.78189(9)
H48_11 H 0.6092 0.8417 0.7685
H49_11 H 0.6291 0.8236 0.7840
H50_11 H 0.6371 0.8527 0.7767
C71_11 C 0.59136(11) 0.87215(8) 0.81062(15)
H51_11 H 0.5883 0.8735 0.8293
H52_11 H 0.5751 0.8678 0.8018
H53_11 H 0.5978 0.8888 0.8041
C72_11 C 0.57387(12) 0.77992(9) 0.84121(13)
H54_11 H 0.5643 0.7658 0.8482
Y3_22 Y 0.73311(4) 1.0000 0.81346(6)
Y4_11 Y 0.68654(6) 0.73311(4) 0.5000
Y5_22 Y 0.76689(4) 0.81346(6) 1.0000
Y6_11 Y 0.5000 0.76689(4) 0.68654(6)
O13_11 O 0.76428(17) 0.97004(13) 0.81616(17)
O14_11 O 0.47004(13) 0.81616(17) 0.73572(17)
O19_11 O 0.4716(3) 0.7976(3) 0.7901(3)
Y2_23 Y 0.31346(6) 0.0000 0.26689(4)
Y3_23 Y 0.26689(4) 0.0000 0.18654(6)
O15_12 O 0.31616(17) 0.02996(13) 0.23572(17)
O16_12 O 0.23572(17) 0.02996(13) 0.18384(17)
O17_12 O 0.2901(3) 0.0284(3) 0.2024(3)
O18_12 O 0.2976(3) 0.0284(3) 0.2901(3)
Y1_12 Y 0.5000 0.81346(6) 0.23311(4)
O1_12 O 0.47004(13) 0.81616(17) 0.26428(17)
O2_12 O 0.4716(3) 0.7901(3) 0.2976(3)
C1_12 C 0.46374(10) 0.80753(17) 0.28725(14)
C2_12 C 0.43604(9) 0.81657(12) 0.29329(10)
C3_12 C 0.42845(7) 0.81079(11) 0.31533(10)
H1_12 H 0.4402 0.8039 0.3278
C4_12 C 0.39905(7) 0.81492(8) 0.32251(8)
C5_12 C 0.38761(9) 0.80514(10) 0.34996(9)
C6_12 C 0.36795(8) 0.82821(10) 0.35030(10)
C7_12 C 0.36704(8) 0.84857(9) 0.33157(11)
C8_12 C 0.39057(8) 0.83854(8) 0.31481(8)
C9_12 C 0.39896(12) 0.85604(11) 0.28944(11)
H2_12 H 0.3905 0.8707 0.2821
C10_12 C 0.37732(12) 0.78189(9) 0.34134(13)
H3_12 H 0.3908 0.7685 0.3417
H4_12 H 0.3709 0.7840 0.3236
H5_12 H 0.3629 0.7767 0.3527
C11_12 C 0.40864(11) 0.81062(15) 0.37215(8)
H6_12 H 0.4117 0.8293 0.3735
H7_12 H 0.4249 0.8018 0.3678
H8_12 H 0.4022 0.8041 0.3888
C12_12 C 0.42613(12) 0.84121(13) 0.27992(9)
H9_12 H 0.4357 0.8482 0.2658
O3_12 O 0.31616(17) 0.76428(17) 0.47004(13)
O4_12 O 0.2901(3) 0.7976(3) 0.4716(3)
C13_12 C 0.30753(17) 0.78725(14) 0.46374(10)
C14_12 C 0.31657(12) 0.79329(10) 0.43604(9)
C15_12 C 0.31079(11) 0.81533(10) 0.42845(7)
H10_12 H 0.3039 0.8278 0.4402
C16_12 C 0.31492(8) 0.82251(8) 0.39905(7)
C17_12 C 0.30514(10) 0.84996(9) 0.38761(9)
C18_12 C 0.32821(10) 0.85030(10) 0.36795(8)
C19_12 C 0.34857(9) 0.83157(11) 0.36704(8)
C20_12 C 0.33854(8) 0.81481(8) 0.39057(8)
C21_12 C 0.35604(11) 0.78944(11) 0.39896(12)
H11_12 H 0.3707 0.7821 0.3905
C22_12 C 0.28189(9) 0.84134(13) 0.37732(12)
H12_12 H 0.2685 0.8417 0.3908
H13_12 H 0.2840 0.8236 0.3709
H14_12 H 0.2767 0.8527 0.3629
C23_12 C 0.31062(15) 0.87215(8) 0.40864(11)
H15_12 H 0.3293 0.8735 0.4117
H16_12 H 0.3018 0.8678 0.4249
H17_12 H 0.3041 0.8888 0.4022
C24_12 C 0.34121(13) 0.77992(9) 0.42613(12)
H18_12 H 0.3482 0.7658 0.4357
O5_12 O 0.26428(17) 0.97004(13) 0.31616(17)
O6_12 O 0.2976(3) 0.9716(3) 0.2901(3)
C25_12 C 0.28725(14) 0.96374(10) 0.30753(17)
C26_12 C 0.29329(10) 0.93604(9) 0.31657(12)
C27_12 C 0.31533(10) 0.92845(7) 0.31079(11)
H19_12 H 0.3278 0.9402 0.3039
C28_12 C 0.32251(8) 0.89905(7) 0.31492(8)
C29_12 C 0.34996(9) 0.88761(9) 0.30514(10)
C30_12 C 0.35030(10) 0.86795(8) 0.32821(10)
C31_12 C 0.33157(11) 0.86704(8) 0.34857(9)
C32_12 C 0.31481(8) 0.89057(8) 0.33854(8)
C33_12 C 0.28944(11) 0.89896(12) 0.35604(11)
H20_12 H 0.2821 0.8905 0.3707
C34_12 C 0.34134(13) 0.87732(12) 0.28189(9)
H21_12 H 0.3417 0.8908 0.2685
H22_12 H 0.3236 0.8709 0.2840
H23_12 H 0.3527 0.8629 0.2767
C35_12 C 0.37215(8) 0.90864(11) 0.31062(15)
H24_12 H 0.3735 0.9117 0.3293
H25_12 H 0.3678 0.9249 0.3018
H26_12 H 0.3888 0.9022 0.3041
C36_12 C 0.27992(9) 0.92613(12) 0.34121(13)
H27_12 H 0.2658 0.9357 0.3482
Y2_24 Y 0.31346(6) 1.0000 0.26689(4)
O7_12 O 0.31616(17) 0.97004(13) 0.23572(17)
O8_12 O 0.2901(3) 0.9716(3) 0.2024(3)
C37_12 C 0.30753(17) 0.96374(10) 0.21275(14)
C38_12 C 0.31657(12) 0.93604(9) 0.20671(10)
C39_12 C 0.31079(11) 0.92845(7) 0.18467(10)
H28_12 H 0.3039 0.9402 0.1722
C40_12 C 0.31492(8) 0.89905(7) 0.17749(8)
C41_12 C 0.30514(10) 0.88761(9) 0.15004(9)
C42_12 C 0.32821(10) 0.86795(8) 0.14970(10)
C43_12 C 0.34857(9) 0.86704(8) 0.16843(11)
C44_12 C 0.33854(8) 0.89057(8) 0.18519(8)
C45_12 C 0.35604(11) 0.89896(12) 0.21056(11)
H29_12 H 0.3707 0.8905 0.2179
C46_12 C 0.28189(9) 0.87732(12) 0.15866(13)
H30_12 H 0.2685 0.8908 0.1583
H31_12 H 0.2840 0.8709 0.1764
H32_12 H 0.2767 0.8629 0.1473
C47_12 C 0.31062(15) 0.90864(11) 0.12785(8)
H33_12 H 0.3293 0.9117 0.1265
H34_12 H 0.3018 0.9249 0.1322
H35_12 H 0.3041 0.9022 0.1112
C48_12 C 0.34121(13) 0.92613(12) 0.22008(9)
H36_12 H 0.3482 0.9357 0.2342
O9_12 O 0.26428(17) 0.81616(17) 0.02996(13)
O10_12 O 0.2976(3) 0.7901(3) 0.0284(3)
C49_12 C 0.28725(14) 0.80753(17) 0.03626(10)
C50_12 C 0.29329(10) 0.81657(12) 0.06396(9)
C51_12 C 0.31533(10) 0.81079(11) 0.07155(7)
H37_12 H 0.3278 0.8039 0.0598
C52_12 C 0.32251(8) 0.81492(8) 0.10095(7)
C53_12 C 0.34996(9) 0.80514(10) 0.11239(9)
C54_12 C 0.35030(10) 0.82821(10) 0.13205(8)
C55_12 C 0.33157(11) 0.84857(9) 0.13296(8)
C56_12 C 0.31481(8) 0.83854(8) 0.10943(8)
C57_12 C 0.28944(11) 0.85604(11) 0.10104(12)
H38_12 H 0.2821 0.8707 0.1095
C58_12 C 0.34134(13) 0.78189(9) 0.12268(12)
H39_12 H 0.3417 0.7685 0.1092
H40_12 H 0.3236 0.7840 0.1291
H41_12 H 0.3527 0.7767 0.1371
C59_12 C 0.37215(8) 0.81062(15) 0.09136(11)
H42_12 H 0.3735 0.8293 0.0883
H43_12 H 0.3678 0.8018 0.0751
H44_12 H 0.3888 0.8041 0.0978
C60_12 C 0.27992(9) 0.84121(13) 0.07387(12)
H45_12 H 0.2658 0.8482 0.0643
O11_12 O 0.47004(13) 0.76428(17) 0.18384(17)
O12_12 O 0.4716(3) 0.7976(3) 0.2099(3)
C61_12 C 0.46374(10) 0.78725(14) 0.19247(17)
C62_12 C 0.43604(9) 0.79329(10) 0.18343(12)
C63_12 C 0.42845(7) 0.81533(10) 0.18921(11)
H46_12 H 0.4402 0.8278 0.1961
C64_12 C 0.39905(7) 0.82251(8) 0.18508(8)
C65_12 C 0.38761(9) 0.84996(9) 0.19486(10)
C66_12 C 0.36795(8) 0.85030(10) 0.17179(10)
C67_12 C 0.36704(8) 0.83157(11) 0.15143(9)
C68_12 C 0.39057(8) 0.81481(8) 0.16146(8)
C69_12 C 0.39896(12) 0.78944(11) 0.14396(11)
H47_12 H 0.3905 0.7821 0.1293
C70_12 C 0.37732(12) 0.84134(13) 0.21811(9)
H48_12 H 0.3908 0.8417 0.2315
H49_12 H 0.3709 0.8236 0.2160
H50_12 H 0.3629 0.8527 0.2233
C71_12 C 0.40864(11) 0.87215(8) 0.18938(15)
H51_12 H 0.4117 0.8735 0.1707
H52_12 H 0.4249 0.8678 0.1982
H53_12 H 0.4022 0.8888 0.1959
C72_12 C 0.42613(12) 0.77992(9) 0.15879(13)
H54_12 H 0.4357 0.7658 0.1518
Y3_24 Y 0.26689(4) 1.0000 0.18654(6)
Y4_12 Y 0.31346(6) 0.73311(4) 0.5000
Y5_23 Y 0.23311(4) 0.81346(6) -0.0000
Y6_12 Y 0.5000 0.76689(4) 0.31346(6)
O13_12 O 0.23572(17) 0.97004(13) 0.18384(17)
O14_12 O 0.52996(13) 0.81616(17) 0.26428(17)
O19_12 O 0.5284(3) 0.7976(3) 0.2099(3)
Y5_24 Y 0.23311(4) 0.81346(6) 1.0000
O13_13 O 0.26428(17) 0.68384(17) 0.47004(13)
O16_13 O 0.26428(17) 0.68384(17) 0.52996(13)
O17_13 O 0.2099(3) 0.7024(3) 0.5284(3)
O13_14 O 0.73572(17) 0.31616(17) 0.47004(13)
O16_14 O 0.73572(17) 0.31616(17) 0.52996(13)
O17_14 O 0.7901(3) 0.2976(3) 0.5284(3)
O13_15 O 0.26428(17) 0.31616(17) 0.52996(13)
O16_15 O 0.26428(17) 0.31616(17) 0.47004(13)
O17_15 O 0.2099(3) 0.2976(3) 0.4716(3)
O13_16 O 0.73572(17) 0.68384(17) 0.52996(13)
O16_16 O 0.73572(17) 0.68384(17) 0.47004(13)
O17_16 O 0.7901(3) 0.7024(3) 0.4716(3)
O13_17 O 0.68384(17) 0.52996(13) 0.73572(17)
O16_17 O 0.68384(17) 0.47004(13) 0.73572(17)
O17_17 O 0.7024(3) 0.4716(3) 0.7901(3)
O13_18 O 0.31616(17) 0.52996(13) 0.26428(17)
O16_18 O 0.31616(17) 0.47004(13) 0.26428(17)
O17_18 O 0.2976(3) 0.4716(3) 0.2099(3)
O13_19 O 0.31616(17) 0.47004(13) 0.73572(17)
O16_19 O 0.31616(17) 0.52996(13) 0.73572(17)
O17_19 O 0.2976(3) 0.5284(3) 0.7901(3)
O13_20 O 0.68384(17) 0.47004(13) 0.26428(17)
O16_20 O 0.68384(17) 0.52996(13) 0.26428(17)
O17_20 O 0.7024(3) 0.5284(3) 0.2099(3)
O13_21 O 0.52996(13) 0.26428(17) 0.31616(17)
O16_21 O 0.47004(13) 0.26428(17) 0.31616(17)
O17_21 O 0.4716(3) 0.2099(3) 0.2976(3)
O13_22 O 0.52996(13) 0.73572(17) 0.68384(17)
O16_22 O 0.47004(13) 0.73572(17) 0.68384(17)
O17_22 O 0.4716(3) 0.7901(3) 0.7024(3)
O13_23 O 0.47004(13) 0.26428(17) 0.68384(17)
O16_23 O 0.52996(13) 0.26428(17) 0.68384(17)
O17_23 O 0.5284(3) 0.2099(3) 0.7024(3)
O13_24 O 0.47004(13) 0.73572(17) 0.31616(17)
O16_24 O 0.52996(13) 0.73572(17) 0.31616(17)
O17_24 O 0.5284(3) 0.7901(3) 0.2976(3)
O15_13 O 0.23572(17) 0.18384(17) 0.47004(13)
O18_13 O 0.2901(3) 0.2024(3) 0.4716(3)
O14_13 O 0.26428(17) 0.97004(13) 0.68384(17)
O19_13 O 0.2099(3) 0.9716(3) 0.7024(3)
O14_14 O 0.73572(17) 0.02996(13) 0.68384(17)
O19_14 O 0.7901(3) 0.0284(3) 0.7024(3)
O15_14 O 0.76428(17) 0.81616(17) 0.47004(13)
O18_14 O 0.7099(3) 0.7976(3) 0.4716(3)
O15_15 O 0.76428(17) 0.18384(17) 0.52996(13)
O18_15 O 0.7099(3) 0.2024(3) 0.5284(3)
O14_15 O 0.73572(17) 0.97004(13) 0.31616(17)
O19_15 O 0.7901(3) 0.9716(3) 0.2976(3)
O14_16 O 0.26428(17) 0.02996(13) 0.31616(17)
O19_16 O 0.2099(3) 0.0284(3) 0.2976(3)
O15_16 O 0.23572(17) 0.81616(17) 0.52996(13)
O18_16 O 0.2901(3) 0.7976(3) 0.5284(3)
O2_13 O 0.2099(3) 0.7976(3) 0.0284(3)
C1_13 C 0.19247(17) 0.78725(14) 0.03626(10)
C2_13 C 0.18343(12) 0.79329(10) 0.06396(9)
C3_13 C 0.18921(11) 0.81533(10) 0.07155(7)
H1_13 H 0.1961 0.8278 0.0598
C4_13 C 0.18508(8) 0.82251(8) 0.10095(7)
C5_13 C 0.19486(10) 0.84996(9) 0.11239(9)
C6_13 C 0.17179(10) 0.85030(10) 0.13205(8)
C7_13 C 0.15143(9) 0.83157(11) 0.13296(8)
C8_13 C 0.16146(8) 0.81481(8) 0.10943(8)
C9_13 C 0.14396(11) 0.78944(11) 0.10104(12)
H2_13 H 0.1293 0.7821 0.1095
C10_13 C 0.21811(9) 0.84134(13) 0.12268(12)
H3_13 H 0.2315 0.8417 0.1092
H4_13 H 0.2160 0.8236 0.1291
H5_13 H 0.2233 0.8527 0.1371
C11_13 C 0.18938(15) 0.87215(8) 0.09136(11)
H6_13 H 0.1707 0.8735 0.0883
H7_13 H 0.1982 0.8678 0.0751
H8_13 H 0.1959 0.8888 0.0978
C12_13 C 0.15879(13) 0.77992(9) 0.07387(12)
H9_13 H 0.1518 0.7658 0.0643
O4_13 O 0.2024(3) 0.9716(3) 0.2099(3)
C13_13 C 0.21275(14) 0.96374(10) 0.19247(17)
C14_13 C 0.20671(10) 0.93604(9) 0.18343(12)
C15_13 C 0.18467(10) 0.92845(7) 0.18921(11)
H10_13 H 0.1722 0.9402 0.1961
C16_13 C 0.17749(8) 0.89905(7) 0.18508(8)
C17_13 C 0.15004(9) 0.88761(9) 0.19486(10)
C18_13 C 0.14970(10) 0.86795(8) 0.17179(10)
C19_13 C 0.16843(11) 0.86704(8) 0.15143(9)
C20_13 C 0.18519(8) 0.89057(8) 0.16146(8)
C21_13 C 0.21056(11) 0.89896(12) 0.14396(11)
H11_13 H 0.2179 0.8905 0.1293
C22_13 C 0.15866(13) 0.87732(12) 0.21811(9)
H12_13 H 0.1583 0.8908 0.2315
H13_13 H 0.1764 0.8709 0.2160
H14_13 H 0.1473 0.8629 0.2233
C23_13 C 0.12785(8) 0.90864(11) 0.18938(15)
H15_13 H 0.1265 0.9117 0.1707
H16_13 H 0.1322 0.9249 0.1982
H17_13 H 0.1112 0.9022 0.1959
C24_13 C 0.22008(9) 0.92613(12) 0.15879(13)
H18_13 H 0.2342 0.9357 0.1518
O6_13 O 0.0284(3) 0.7901(3) 0.2024(3)
C25_13 C 0.03626(10) 0.80753(17) 0.21275(14)
C26_13 C 0.06396(9) 0.81657(12) 0.20671(10)
C27_13 C 0.07155(7) 0.81079(11) 0.18467(10)
H19_13 H 0.0598 0.8039 0.1722
C28_13 C 0.10095(7) 0.81492(8) 0.17749(8)
C29_13 C 0.11239(9) 0.80514(10) 0.15004(9)
C30_13 C 0.13205(8) 0.82821(10) 0.14970(10)
C31_13 C 0.13296(8) 0.84857(9) 0.16843(11)
C32_13 C 0.10943(8) 0.83854(8) 0.18519(8)
C33_13 C 0.10104(12) 0.85604(11) 0.21056(11)
H20_13 H 0.1095 0.8707 0.2179
C34_13 C 0.12268(12) 0.78189(9) 0.15866(13)
H21_13 H 0.1092 0.7685 0.1583
H22_13 H 0.1291 0.7840 0.1764
H23_13 H 0.1371 0.7767 0.1473
C35_13 C 0.09136(11) 0.81062(15) 0.12785(8)
H24_13 H 0.0883 0.8293 0.1265
H25_13 H 0.0751 0.8018 0.1322
H26_13 H 0.0978 0.8041 0.1112
C36_13 C 0.07387(12) 0.84121(13) 0.22008(9)
H27_13 H 0.0643 0.8482 0.2342
O15_17 O 0.97004(13) 0.73572(17) 0.18384(17)
O16_25 O 0.97004(13) 0.68384(17) 0.26428(17)
O17_25 O 0.9716(3) 0.7024(3) 0.2099(3)
O18_17 O 0.9716(3) 0.7901(3) 0.2024(3)
O2_14 O 0.2099(3) 0.2024(3) 0.9716(3)
C1_14 C 0.19247(17) 0.21275(14) 0.96374(10)
C2_14 C 0.18343(12) 0.20671(10) 0.93604(9)
C3_14 C 0.18921(11) 0.18467(10) 0.92845(7)
H1_14 H 0.1961 0.1722 0.9402
C4_14 C 0.18508(8) 0.17749(8) 0.89905(7)
C5_14 C 0.19486(10) 0.15004(9) 0.88761(9)
C6_14 C 0.17179(10) 0.14970(10) 0.86795(8)
C7_14 C 0.15143(9) 0.16843(11) 0.86704(8)
C8_14 C 0.16146(8) 0.18519(8) 0.89057(8)
C9_14 C 0.14396(11) 0.21056(11) 0.89896(12)
H2_14 H 0.1293 0.2179 0.8905
C10_14 C 0.21811(9) 0.15866(13) 0.87732(12)
H3_14 H 0.2315 0.1583 0.8908
H4_14 H 0.2160 0.1764 0.8709
H5_14 H 0.2233 0.1473 0.8629
C11_14 C 0.18938(15) 0.12785(8) 0.90864(11)
H6_14 H 0.1707 0.1265 0.9117
H7_14 H 0.1982 0.1322 0.9249
H8_14 H 0.1959 0.1112 0.9022
C12_14 C 0.15879(13) 0.22008(9) 0.92613(12)
H9_14 H 0.1518 0.2342 0.9357
O4_14 O 0.2024(3) 0.0284(3) 0.7901(3)
C13_14 C 0.21275(14) 0.03626(10) 0.80753(17)
C14_14 C 0.20671(10) 0.06396(9) 0.81657(12)
C15_14 C 0.18467(10) 0.07155(7) 0.81079(11)
H10_14 H 0.1722 0.0598 0.8039
C16_14 C 0.17749(8) 0.10095(7) 0.81492(8)
C17_14 C 0.15004(9) 0.11239(9) 0.80514(10)
C18_14 C 0.14970(10) 0.13205(8) 0.82821(10)
C19_14 C 0.16843(11) 0.13296(8) 0.84857(9)
C20_14 C 0.18519(8) 0.10943(8) 0.83854(8)
C21_14 C 0.21056(11) 0.10104(12) 0.85604(11)
H11_14 H 0.2179 0.1095 0.8707
C22_14 C 0.15866(13) 0.12268(12) 0.78189(9)
H12_14 H 0.1583 0.1092 0.7685
H13_14 H 0.1764 0.1291 0.7840
H14_14 H 0.1473 0.1371 0.7767
C23_14 C 0.12785(8) 0.09136(11) 0.81062(15)
H15_14 H 0.1265 0.0883 0.8293
H16_14 H 0.1322 0.0751 0.8018
H17_14 H 0.1112 0.0978 0.8041
C24_14 C 0.22008(9) 0.07387(12) 0.84121(13)
H18_14 H 0.2342 0.0643 0.8482
O6_14 O 0.0284(3) 0.2099(3) 0.7976(3)
C25_14 C 0.03626(10) 0.19247(17) 0.78725(14)
C26_14 C 0.06396(9) 0.18343(12) 0.79329(10)
C27_14 C 0.07155(7) 0.18921(11) 0.81533(10)
H19_14 H 0.0598 0.1961 0.8278
C28_14 C 0.10095(7) 0.18508(8) 0.82251(8)
C29_14 C 0.11239(9) 0.19486(10) 0.84996(9)
C30_14 C 0.13205(8) 0.17179(10) 0.85030(10)
C31_14 C 0.13296(8) 0.15143(9) 0.83157(11)
C32_14 C 0.10943(8) 0.16146(8) 0.81481(8)
C33_14 C 0.10104(12) 0.14396(11) 0.78944(11)
H20_14 H 0.1095 0.1293 0.7821
C34_14 C 0.12268(12) 0.21811(9) 0.84134(13)
H21_14 H 0.1092 0.2315 0.8417
H22_14 H 0.1291 0.2160 0.8236
H23_14 H 0.1371 0.2233 0.8527
C35_14 C 0.09136(11) 0.18938(15) 0.87215(8)
H24_14 H 0.0883 0.1707 0.8735
H25_14 H 0.0751 0.1982 0.8678
H26_14 H 0.0978 0.1959 0.8888
C36_14 C 0.07387(12) 0.15879(13) 0.77992(9)
H27_14 H 0.0643 0.1518 0.7658
O15_18 O 0.97004(13) 0.26428(17) 0.81616(17)
O16_26 O 0.97004(13) 0.31616(17) 0.73572(17)
O17_26 O 0.9716(3) 0.2976(3) 0.7901(3)
O18_18 O 0.9716(3) 0.2099(3) 0.7976(3)
O15_19 O 0.02996(13) 0.26428(17) 0.18384(17)
O16_27 O 0.02996(13) 0.31616(17) 0.26428(17)
O17_27 O 0.0284(3) 0.2976(3) 0.2099(3)
O18_19 O 0.0284(3) 0.2099(3) 0.2024(3)
O2_15 O 0.7901(3) 0.2024(3) 0.0284(3)
C1_15 C 0.80753(17) 0.21275(14) 0.03626(10)
C2_15 C 0.81657(12) 0.20671(10) 0.06396(9)
C3_15 C 0.81079(11) 0.18467(10) 0.07155(7)
H1_15 H 0.8039 0.1722 0.0598
C4_15 C 0.81492(8) 0.17749(8) 0.10095(7)
C5_15 C 0.80514(10) 0.15004(9) 0.11239(9)
C6_15 C 0.82821(10) 0.14970(10) 0.13205(8)
C7_15 C 0.84857(9) 0.16843(11) 0.13296(8)
C8_15 C 0.83854(8) 0.18519(8) 0.10943(8)
C9_15 C 0.85604(11) 0.21056(11) 0.10104(12)
H2_15 H 0.8707 0.2179 0.1095
C10_15 C 0.78189(9) 0.15866(13) 0.12268(12)
H3_15 H 0.7685 0.1583 0.1092
H4_15 H 0.7840 0.1764 0.1291
H5_15 H 0.7767 0.1473 0.1371
C11_15 C 0.81062(15) 0.12785(8) 0.09136(11)
H6_15 H 0.8293 0.1265 0.0883
H7_15 H 0.8018 0.1322 0.0751
H8_15 H 0.8041 0.1112 0.0978
C12_15 C 0.84121(13) 0.22008(9) 0.07387(12)
H9_15 H 0.8482 0.2342 0.0643
O4_15 O 0.7976(3) 0.0284(3) 0.2099(3)
C13_15 C 0.78725(14) 0.03626(10) 0.19247(17)
C14_15 C 0.79329(10) 0.06396(9) 0.18343(12)
C15_15 C 0.81533(10) 0.07155(7) 0.18921(11)
H10_15 H 0.8278 0.0598 0.1961
C16_15 C 0.82251(8) 0.10095(7) 0.18508(8)
C17_15 C 0.84996(9) 0.11239(9) 0.19486(10)
C18_15 C 0.85030(10) 0.13205(8) 0.17179(10)
C19_15 C 0.83157(11) 0.13296(8) 0.15143(9)
C20_15 C 0.81481(8) 0.10943(8) 0.16146(8)
C21_15 C 0.78944(11) 0.10104(12) 0.14396(11)
H11_15 H 0.7821 0.1095 0.1293
C22_15 C 0.84134(13) 0.12268(12) 0.21811(9)
H12_15 H 0.8417 0.1092 0.2315
H13_15 H 0.8236 0.1291 0.2160
H14_15 H 0.8527 0.1371 0.2233
C23_15 C 0.87215(8) 0.09136(11) 0.18938(15)
H15_15 H 0.8735 0.0883 0.1707
H16_15 H 0.8678 0.0751 0.1982
H17_15 H 0.8888 0.0978 0.1959
C24_15 C 0.77992(9) 0.07387(12) 0.15879(13)
H18_15 H 0.7658 0.0643 0.1518
O6_15 O 0.9716(3) 0.2099(3) 0.2024(3)
C25_15 C 0.96374(10) 0.19247(17) 0.21275(14)
C26_15 C 0.93604(9) 0.18343(12) 0.20671(10)
C27_15 C 0.92845(7) 0.18921(11) 0.18467(10)
H19_15 H 0.9402 0.1961 0.1722
C28_15 C 0.89905(7) 0.18508(8) 0.17749(8)
C29_15 C 0.88761(9) 0.19486(10) 0.15004(9)
C30_15 C 0.86795(8) 0.17179(10) 0.14970(10)
C31_15 C 0.86704(8) 0.15143(9) 0.16843(11)
C32_15 C 0.89057(8) 0.16146(8) 0.18519(8)
C33_15 C 0.89896(12) 0.14396(11) 0.21056(11)
H20_15 H 0.8905 0.1293 0.2179
C34_15 C 0.87732(12) 0.21811(9) 0.15866(13)
H21_15 H 0.8908 0.2315 0.1583
H22_15 H 0.8709 0.2160 0.1764
H23_15 H 0.8629 0.2233 0.1473
C35_15 C 0.90864(11) 0.18938(15) 0.12785(8)
H24_15 H 0.9117 0.1707 0.1265
H25_15 H 0.9249 0.1982 0.1322
H26_15 H 0.9022 0.1959 0.1112
C36_15 C 0.92613(12) 0.15879(13) 0.22008(9)
H27_15 H 0.9357 0.1518 0.2342
O15_20 O 0.02996(13) 0.73572(17) 0.81616(17)
O16_28 O 0.02996(13) 0.68384(17) 0.73572(17)
O17_28 O 0.0284(3) 0.7024(3) 0.7901(3)
O18_20 O 0.0284(3) 0.7901(3) 0.7976(3)
O2_16 O 0.7901(3) 0.7976(3) 0.9716(3)
C1_16 C 0.80753(17) 0.78725(14) 0.96374(10)
C2_16 C 0.81657(12) 0.79329(10) 0.93604(9)
C3_16 C 0.81079(11) 0.81533(10) 0.92845(7)
H1_16 H 0.8039 0.8278 0.9402
C4_16 C 0.81492(8) 0.82251(8) 0.89905(7)
C5_16 C 0.80514(10) 0.84996(9) 0.88761(9)
C6_16 C 0.82821(10) 0.85030(10) 0.86795(8)
C7_16 C 0.84857(9) 0.83157(11) 0.86704(8)
C8_16 C 0.83854(8) 0.81481(8) 0.89057(8)
C9_16 C 0.85604(11) 0.78944(11) 0.89896(12)
H2_16 H 0.8707 0.7821 0.8905
C10_16 C 0.78189(9) 0.84134(13) 0.87732(12)
H3_16 H 0.7685 0.8417 0.8908
H4_16 H 0.7840 0.8236 0.8709
H5_16 H 0.7767 0.8527 0.8629
C11_16 C 0.81062(15) 0.87215(8) 0.90864(11)
H6_16 H 0.8293 0.8735 0.9117
H7_16 H 0.8018 0.8678 0.9249
H8_16 H 0.8041 0.8888 0.9022
C12_16 C 0.84121(13) 0.77992(9) 0.92613(12)
H9_16 H 0.8482 0.7658 0.9357
O4_16 O 0.7976(3) 0.9716(3) 0.7901(3)
C13_16 C 0.78725(14) 0.96374(10) 0.80753(17)
C14_16 C 0.79329(10) 0.93604(9) 0.81657(12)
C15_16 C 0.81533(10) 0.92845(7) 0.81079(11)
H10_16 H 0.8278 0.9402 0.8039
C16_16 C 0.82251(8) 0.89905(7) 0.81492(8)
C17_16 C 0.84996(9) 0.88761(9) 0.80514(10)
C18_16 C 0.85030(10) 0.86795(8) 0.82821(10)
C19_16 C 0.83157(11) 0.86704(8) 0.84857(9)
C20_16 C 0.81481(8) 0.89057(8) 0.83854(8)
C21_16 C 0.78944(11) 0.89896(12) 0.85604(11)
H11_16 H 0.7821 0.8905 0.8707
C22_16 C 0.84134(13) 0.87732(12) 0.78189(9)
H12_16 H 0.8417 0.8908 0.7685
H13_16 H 0.8236 0.8709 0.7840
H14_16 H 0.8527 0.8629 0.7767
C23_16 C 0.87215(8) 0.90864(11) 0.81062(15)
H15_16 H 0.8735 0.9117 0.8293
H16_16 H 0.8678 0.9249 0.8018
H17_16 H 0.8888 0.9022 0.8041
C24_16 C 0.77992(9) 0.92613(12) 0.84121(13)
H18_16 H 0.7658 0.9357 0.8482
O6_16 O 0.9716(3) 0.7901(3) 0.7976(3)
C25_16 C 0.96374(10) 0.80753(17) 0.78725(14)
C26_16 C 0.93604(9) 0.81657(12) 0.79329(10)
C27_16 C 0.92845(7) 0.81079(11) 0.81533(10)
H19_16 H 0.9402 0.8039 0.8278
C28_16 C 0.89905(7) 0.81492(8) 0.82251(8)
C29_16 C 0.88761(9) 0.80514(10) 0.84996(9)
C30_16 C 0.86795(8) 0.82821(10) 0.85030(10)
C31_16 C 0.86704(8) 0.84857(9) 0.83157(11)
C32_16 C 0.89057(8) 0.83854(8) 0.81481(8)
C33_16 C 0.89896(12) 0.85604(11) 0.78944(11)
H20_16 H 0.8905 0.8707 0.7821
C34_16 C 0.87732(12) 0.78189(9) 0.84134(13)
H21_16 H 0.8908 0.7685 0.8417
H22_16 H 0.8709 0.7840 0.8236
H23_16 H 0.8629 0.7767 0.8527
C35_16 C 0.90864(11) 0.81062(15) 0.87215(8)
H24_16 H 0.9117 0.8293 0.8735
H25_16 H 0.9249 0.8018 0.8678
H26_16 H 0.9022 0.8041 0.8888
C36_16 C 0.92613(12) 0.84121(13) 0.77992(9)
H27_16 H 0.9357 0.8482 0.7658
O8_13 O 0.7099(3) 0.5284(3) 0.7024(3)
C37_13 C 0.69247(17) 0.53626(10) 0.71275(14)
C38_13 C 0.68343(12) 0.56396(9) 0.70671(10)
C39_13 C 0.68921(11) 0.57155(7) 0.68467(10)
H28_13 H 0.6961 0.5598 0.6722
C40_13 C 0.68508(8) 0.60095(7) 0.67749(8)
C41_13 C 0.69486(10) 0.61239(9) 0.65004(9)
C42_13 C 0.67179(10) 0.63205(8) 0.64970(10)
C43_13 C 0.65143(9) 0.63296(8) 0.66843(11)
C44_13 C 0.66146(8) 0.60943(8) 0.68519(8)
C45_13 C 0.64396(11) 0.60104(12) 0.71056(11)
H29_13 H 0.6293 0.6095 0.7179
C46_13 C 0.71811(9) 0.62268(12) 0.65866(13)
H30_13 H 0.7315 0.6092 0.6583
H31_13 H 0.7160 0.6291 0.6764
H32_13 H 0.7233 0.6371 0.6473
C47_13 C 0.68938(15) 0.59136(11) 0.62785(8)
H33_13 H 0.6707 0.5883 0.6265
H34_13 H 0.6982 0.5751 0.6322
H35_13 H 0.6959 0.5978 0.6112
C48_13 C 0.65879(13) 0.57387(12) 0.72008(9)
H36_13 H 0.6518 0.5643 0.7342
O10_13 O 0.7024(3) 0.7099(3) 0.5284(3)
C49_13 C 0.71275(14) 0.69247(17) 0.53626(10)
C50_13 C 0.70671(10) 0.68343(12) 0.56396(9)
C51_13 C 0.68467(10) 0.68921(11) 0.57155(7)
H37_13 H 0.6722 0.6961 0.5598
C52_13 C 0.67749(8) 0.68508(8) 0.60095(7)
C53_13 C 0.65004(9) 0.69486(10) 0.61239(9)
C54_13 C 0.64970(10) 0.67179(10) 0.63205(8)
C55_13 C 0.66843(11) 0.65143(9) 0.63296(8)
C56_13 C 0.68519(8) 0.66146(8) 0.60943(8)
C57_13 C 0.71056(11) 0.64396(11) 0.60104(12)
H38_13 H 0.7179 0.6293 0.6095
C58_13 C 0.65866(13) 0.71811(9) 0.62268(12)
H39_13 H 0.6583 0.7315 0.6092
H40_13 H 0.6764 0.7160 0.6291
H41_13 H 0.6473 0.7233 0.6371
C59_13 C 0.62785(8) 0.68938(15) 0.59136(11)
H42_13 H 0.6265 0.6707 0.5883
H43_13 H 0.6322 0.6982 0.5751
H44_13 H 0.6112 0.6959 0.5978
C60_13 C 0.72008(9) 0.65879(13) 0.57387(12)
H45_13 H 0.7342 0.6518 0.5643
O12_13 O 0.5284(3) 0.7024(3) 0.7099(3)
C61_13 C 0.53626(10) 0.71275(14) 0.69247(17)
C62_13 C 0.56396(9) 0.70671(10) 0.68343(12)
C63_13 C 0.57155(7) 0.68467(10) 0.68921(11)
H46_13 H 0.5598 0.6722 0.6961
C64_13 C 0.60095(7) 0.67749(8) 0.68508(8)
C65_13 C 0.61239(9) 0.65004(9) 0.69486(10)
C66_13 C 0.63205(8) 0.64970(10) 0.67179(10)
C67_13 C 0.63296(8) 0.66843(11) 0.65143(9)
C68_13 C 0.60943(8) 0.68519(8) 0.66146(8)
C69_13 C 0.60104(12) 0.71056(11) 0.64396(11)
H47_13 H 0.6095 0.7179 0.6293
C70_13 C 0.62268(12) 0.65866(13) 0.71811(9)
H48_13 H 0.6092 0.6583 0.7315
H49_13 H 0.6291 0.6764 0.7160
H50_13 H 0.6371 0.6473 0.7233
C71_13 C 0.59136(11) 0.62785(8) 0.68938(15)
H51_13 H 0.5883 0.6265 0.6707
H52_13 H 0.5751 0.6322 0.6982
H53_13 H 0.5978 0.6112 0.6959
C72_13 C 0.57387(12) 0.72008(9) 0.65879(13)
H54_13 H 0.5643 0.7342 0.6518
O14_17 O 0.47004(13) 0.68384(17) 0.76428(17)
O16_29 O 0.76428(17) 0.47004(13) 0.68384(17)
O17_29 O 0.7099(3) 0.4716(3) 0.7024(3)
O19_17 O 0.4716(3) 0.7024(3) 0.7099(3)
O8_14 O 0.2901(3) 0.5284(3) 0.2976(3)
C37_14 C 0.30753(17) 0.53626(10) 0.28725(14)
C38_14 C 0.31657(12) 0.56396(9) 0.29329(10)
C39_14 C 0.31079(11) 0.57155(7) 0.31533(10)
H28_14 H 0.3039 0.5598 0.3278
C40_14 C 0.31492(8) 0.60095(7) 0.32251(8)
C41_14 C 0.30514(10) 0.61239(9) 0.34996(9)
C42_14 C 0.32821(10) 0.63205(8) 0.35030(10)
C43_14 C 0.34857(9) 0.63296(8) 0.33157(11)
C44_14 C 0.33854(8) 0.60943(8) 0.31481(8)
C45_14 C 0.35604(11) 0.60104(12) 0.28944(11)
H29_14 H 0.3707 0.6095 0.2821
C46_14 C 0.28189(9) 0.62268(12) 0.34134(13)
H30_14 H 0.2685 0.6092 0.3417
H31_14 H 0.2840 0.6291 0.3236
H32_14 H 0.2767 0.6371 0.3527
C47_14 C 0.31062(15) 0.59136(11) 0.37215(8)
H33_14 H 0.3293 0.5883 0.3735
H34_14 H 0.3018 0.5751 0.3678
H35_14 H 0.3041 0.5978 0.3888
C48_14 C 0.34121(13) 0.57387(12) 0.27992(9)
H36_14 H 0.3482 0.5643 0.2658
O10_14 O 0.2976(3) 0.7099(3) 0.4716(3)
C49_14 C 0.28725(14) 0.69247(17) 0.46374(10)
C50_14 C 0.29329(10) 0.68343(12) 0.43604(9)
C51_14 C 0.31533(10) 0.68921(11) 0.42845(7)
H37_14 H 0.3278 0.6961 0.4402
C52_14 C 0.32251(8) 0.68508(8) 0.39905(7)
C53_14 C 0.34996(9) 0.69486(10) 0.38761(9)
C54_14 C 0.35030(10) 0.67179(10) 0.36795(8)
C55_14 C 0.33157(11) 0.65143(9) 0.36704(8)
C56_14 C 0.31481(8) 0.66146(8) 0.39057(8)
C57_14 C 0.28944(11) 0.64396(11) 0.39896(12)
H38_14 H 0.2821 0.6293 0.3905
C58_14 C 0.34134(13) 0.71811(9) 0.37732(12)
H39_14 H 0.3417 0.7315 0.3908
H40_14 H 0.3236 0.7160 0.3709
H41_14 H 0.3527 0.7233 0.3629
C59_14 C 0.37215(8) 0.68938(15) 0.40864(11)
H42_14 H 0.3735 0.6707 0.4117
H43_14 H 0.3678 0.6982 0.4249
H44_14 H 0.3888 0.6959 0.4022
C60_14 C 0.27992(9) 0.65879(13) 0.42613(12)
H45_14 H 0.2658 0.6518 0.4357
O12_14 O 0.4716(3) 0.7024(3) 0.2901(3)
C61_14 C 0.46374(10) 0.71275(14) 0.30753(17)
C62_14 C 0.43604(9) 0.70671(10) 0.31657(12)
C63_14 C 0.42845(7) 0.68467(10) 0.31079(11)
H46_14 H 0.4402 0.6722 0.3039
C64_14 C 0.39905(7) 0.67749(8) 0.31492(8)
C65_14 C 0.38761(9) 0.65004(9) 0.30514(10)
C66_14 C 0.36795(8) 0.64970(10) 0.32821(10)
C67_14 C 0.36704(8) 0.66843(11) 0.34857(9)
C68_14 C 0.39057(8) 0.68519(8) 0.33854(8)
C69_14 C 0.39896(12) 0.71056(11) 0.35604(11)
H47_14 H 0.3905 0.7179 0.3707
C70_14 C 0.37732(12) 0.65866(13) 0.28189(9)
H48_14 H 0.3908 0.6583 0.2685
H49_14 H 0.3709 0.6764 0.2840
H50_14 H 0.3629 0.6473 0.2767
C71_14 C 0.40864(11) 0.62785(8) 0.31062(15)
H51_14 H 0.4117 0.6265 0.3293
H52_14 H 0.4249 0.6322 0.3018
H53_14 H 0.4022 0.6112 0.3041
C72_14 C 0.42613(12) 0.72008(9) 0.34121(13)
H54_14 H 0.4357 0.7342 0.3482
O14_18 O 0.52996(13) 0.68384(17) 0.23572(17)
O16_30 O 0.23572(17) 0.47004(13) 0.31616(17)
O17_30 O 0.2901(3) 0.4716(3) 0.2976(3)
O19_18 O 0.5284(3) 0.7024(3) 0.2901(3)
O8_15 O 0.7099(3) 0.4716(3) 0.2976(3)
C37_15 C 0.69247(17) 0.46374(10) 0.28725(14)
C38_15 C 0.68343(12) 0.43604(9) 0.29329(10)
C39_15 C 0.68921(11) 0.42845(7) 0.31533(10)
H28_15 H 0.6961 0.4402 0.3278
C40_15 C 0.68508(8) 0.39905(7) 0.32251(8)
C41_15 C 0.69486(10) 0.38761(9) 0.34996(9)
C42_15 C 0.67179(10) 0.36795(8) 0.35030(10)
C43_15 C 0.65143(9) 0.36704(8) 0.33157(11)
C44_15 C 0.66146(8) 0.39057(8) 0.31481(8)
C45_15 C 0.64396(11) 0.39896(12) 0.28944(11)
H29_15 H 0.6293 0.3905 0.2821
C46_15 C 0.71811(9) 0.37732(12) 0.34134(13)
H30_15 H 0.7315 0.3908 0.3417
H31_15 H 0.7160 0.3709 0.3236
H32_15 H 0.7233 0.3629 0.3527
C47_15 C 0.68938(15) 0.40864(11) 0.37215(8)
H33_15 H 0.6707 0.4117 0.3735
H34_15 H 0.6982 0.4249 0.3678
H35_15 H 0.6959 0.4022 0.3888
C48_15 C 0.65879(13) 0.42613(12) 0.27992(9)
H36_15 H 0.6518 0.4357 0.2658
O10_15 O 0.7024(3) 0.2901(3) 0.4716(3)
C49_15 C 0.71275(14) 0.30753(17) 0.46374(10)
C50_15 C 0.70671(10) 0.31657(12) 0.43604(9)
C51_15 C 0.68467(10) 0.31079(11) 0.42845(7)
H37_15 H 0.6722 0.3039 0.4402
C52_15 C 0.67749(8) 0.31492(8) 0.39905(7)
C53_15 C 0.65004(9) 0.30514(10) 0.38761(9)
C54_15 C 0.64970(10) 0.32821(10) 0.36795(8)
C55_15 C 0.66843(11) 0.34857(9) 0.36704(8)
C56_15 C 0.68519(8) 0.33854(8) 0.39057(8)
C57_15 C 0.71056(11) 0.35604(11) 0.39896(12)
H38_15 H 0.7179 0.3707 0.3905
C58_15 C 0.65866(13) 0.28189(9) 0.37732(12)
H39_15 H 0.6583 0.2685 0.3908
H40_15 H 0.6764 0.2840 0.3709
H41_15 H 0.6473 0.2767 0.3629
C59_15 C 0.62785(8) 0.31062(15) 0.40864(11)
H42_15 H 0.6265 0.3293 0.4117
H43_15 H 0.6322 0.3018 0.4249
H44_15 H 0.6112 0.3041 0.4022
C60_15 C 0.72008(9) 0.34121(13) 0.42613(12)
H45_15 H 0.7342 0.3482 0.4357
O12_15 O 0.5284(3) 0.2976(3) 0.2901(3)
C61_15 C 0.53626(10) 0.28725(14) 0.30753(17)
C62_15 C 0.56396(9) 0.29329(10) 0.31657(12)
C63_15 C 0.57155(7) 0.31533(10) 0.31079(11)
H46_15 H 0.5598 0.3278 0.3039
C64_15 C 0.60095(7) 0.32251(8) 0.31492(8)
C65_15 C 0.61239(9) 0.34996(9) 0.30514(10)
C66_15 C 0.63205(8) 0.35030(10) 0.32821(10)
C67_15 C 0.63296(8) 0.33157(11) 0.34857(9)
C68_15 C 0.60943(8) 0.31481(8) 0.33854(8)
C69_15 C 0.60104(12) 0.28944(11) 0.35604(11)
H47_15 H 0.6095 0.2821 0.3707
C70_15 C 0.62268(12) 0.34134(13) 0.28189(9)
H48_15 H 0.6092 0.3417 0.2685
H49_15 H 0.6291 0.3236 0.2840
H50_15 H 0.6371 0.3527 0.2767
C71_15 C 0.59136(11) 0.37215(8) 0.31062(15)
H51_15 H 0.5883 0.3735 0.3293
H52_15 H 0.5751 0.3678 0.3018
H53_15 H 0.5978 0.3888 0.3041
C72_15 C 0.57387(12) 0.27992(9) 0.34121(13)
H54_15 H 0.5643 0.2658 0.3482
O14_19 O 0.47004(13) 0.31616(17) 0.23572(17)
O16_31 O 0.76428(17) 0.52996(13) 0.31616(17)
O17_31 O 0.7099(3) 0.5284(3) 0.2976(3)
O19_19 O 0.4716(3) 0.2976(3) 0.2901(3)
O8_16 O 0.2901(3) 0.4716(3) 0.7024(3)
C37_16 C 0.30753(17) 0.46374(10) 0.71275(14)
C38_16 C 0.31657(12) 0.43604(9) 0.70671(10)
C39_16 C 0.31079(11) 0.42845(7) 0.68467(10)
H28_16 H 0.3039 0.4402 0.6722
C40_16 C 0.31492(8) 0.39905(7) 0.67749(8)
C41_16 C 0.30514(10) 0.38761(9) 0.65004(9)
C42_16 C 0.32821(10) 0.36795(8) 0.64970(10)
C43_16 C 0.34857(9) 0.36704(8) 0.66843(11)
C44_16 C 0.33854(8) 0.39057(8) 0.68519(8)
C45_16 C 0.35604(11) 0.39896(12) 0.71056(11)
H29_16 H 0.3707 0.3905 0.7179
C46_16 C 0.28189(9) 0.37732(12) 0.65866(13)
H30_16 H 0.2685 0.3908 0.6583
H31_16 H 0.2840 0.3709 0.6764
H32_16 H 0.2767 0.3629 0.6473
C47_16 C 0.31062(15) 0.40864(11) 0.62785(8)
H33_16 H 0.3293 0.4117 0.6265
H34_16 H 0.3018 0.4249 0.6322
H35_16 H 0.3041 0.4022 0.6112
C48_16 C 0.34121(13) 0.42613(12) 0.72008(9)
H36_16 H 0.3482 0.4357 0.7342
O10_16 O 0.2976(3) 0.2901(3) 0.5284(3)
C49_16 C 0.28725(14) 0.30753(17) 0.53626(10)
C50_16 C 0.29329(10) 0.31657(12) 0.56396(9)
C51_16 C 0.31533(10) 0.31079(11) 0.57155(7)
H37_16 H 0.3278 0.3039 0.5598
C52_16 C 0.32251(8) 0.31492(8) 0.60095(7)
C53_16 C 0.34996(9) 0.30514(10) 0.61239(9)
C54_16 C 0.35030(10) 0.32821(10) 0.63205(8)
C55_16 C 0.33157(11) 0.34857(9) 0.63296(8)
C56_16 C 0.31481(8) 0.33854(8) 0.60943(8)
C57_16 C 0.28944(11) 0.35604(11) 0.60104(12)
H38_16 H 0.2821 0.3707 0.6095
C58_16 C 0.34134(13) 0.28189(9) 0.62268(12)
H39_16 H 0.3417 0.2685 0.6092
H40_16 H 0.3236 0.2840 0.6291
H41_16 H 0.3527 0.2767 0.6371
C59_16 C 0.37215(8) 0.31062(15) 0.59136(11)
H42_16 H 0.3735 0.3293 0.5883
H43_16 H 0.3678 0.3018 0.5751
H44_16 H 0.3888 0.3041 0.5978
C60_16 C 0.27992(9) 0.34121(13) 0.57387(12)
H45_16 H 0.2658 0.3482 0.5643
O12_16 O 0.4716(3) 0.2976(3) 0.7099(3)
C61_16 C 0.46374(10) 0.28725(14) 0.69247(17)
C62_16 C 0.43604(9) 0.29329(10) 0.68343(12)
C63_16 C 0.42845(7) 0.31533(10) 0.68921(11)
H46_16 H 0.4402 0.3278 0.6961
C64_16 C 0.39905(7) 0.32251(8) 0.68508(8)
C65_16 C 0.38761(9) 0.34996(9) 0.69486(10)
C66_16 C 0.36795(8) 0.35030(10) 0.67179(10)
C67_16 C 0.36704(8) 0.33157(11) 0.65143(9)
C68_16 C 0.39057(8) 0.31481(8) 0.66146(8)
C69_16 C 0.39896(12) 0.28944(11) 0.64396(11)
H47_16 H 0.3905 0.2821 0.6293
C70_16 C 0.37732(12) 0.34134(13) 0.71811(9)
H48_16 H 0.3908 0.3417 0.7315
H49_16 H 0.3709 0.3236 0.7160
H50_16 H 0.3629 0.3527 0.7233
C71_16 C 0.40864(11) 0.37215(8) 0.68938(15)
H51_16 H 0.4117 0.3735 0.6707
H52_16 H 0.4249 0.3678 0.6982
H53_16 H 0.4022 0.3888 0.6959
C72_16 C 0.42613(12) 0.27992(9) 0.65879(13)
H54_16 H 0.4357 0.2658 0.6518
O14_20 O 0.52996(13) 0.31616(17) 0.76428(17)
O16_32 O 0.23572(17) 0.52996(13) 0.68384(17)
O17_32 O 0.2901(3) 0.5284(3) 0.7024(3)
O19_20 O 0.5284(3) 0.2976(3) 0.7099(3)
O16_33 O 0.26428(17) 0.18384(17) 0.02996(13)
O17_33 O 0.2099(3) 0.2024(3) 0.0284(3)
O16_34 O 0.73572(17) 0.81616(17) 0.02996(13)
O17_34 O 0.7901(3) 0.7976(3) 0.0284(3)
O16_35 O 0.26428(17) 0.81616(17) 0.97004(13)
O17_35 O 0.2099(3) 0.7976(3) 0.9716(3)
O16_36 O 0.73572(17) 0.18384(17) 0.97004(13)
O17_36 O 0.7901(3) 0.2024(3) 0.9716(3)
O16_37 O 0.47004(13) 0.76428(17) 0.81616(17)
O17_37 O 0.4716(3) 0.7099(3) 0.7976(3)
O16_38 O 0.47004(13) 0.23572(17) 0.18384(17)
O17_38 O 0.4716(3) 0.2901(3) 0.2024(3)
O16_39 O 0.52996(13) 0.76428(17) 0.18384(17)
O17_39 O 0.5284(3) 0.7099(3) 0.2024(3)
O16_40 O 0.52996(13) 0.23572(17) 0.81616(17)
O17_40 O 0.5284(3) 0.2901(3) 0.7976(3)
O16_41 O 0.68384(17) 0.76428(17) 0.47004(13)
O17_41 O 0.7024(3) 0.7099(3) 0.4716(3)
O16_42 O 0.31616(17) 0.23572(17) 0.47004(13)
O17_42 O 0.2976(3) 0.2901(3) 0.4716(3)
O16_43 O 0.31616(17) 0.76428(17) 0.52996(13)
O17_43 O 0.2976(3) 0.7099(3) 0.5284(3)
O16_44 O 0.68384(17) 0.23572(17) 0.52996(13)
O17_44 O 0.7024(3) 0.2901(3) 0.5284(3)
O14_21 O 0.68384(17) 0.26428(17) 0.97004(13)
O19_21 O 0.7024(3) 0.2099(3) 0.9716(3)
O14_22 O 0.68384(17) 0.73572(17) 0.02996(13)
O19_22 O 0.7024(3) 0.7901(3) 0.0284(3)
O14_23 O 0.31616(17) 0.73572(17) 0.97004(13)
O19_23 O 0.2976(3) 0.7901(3) 0.9716(3)
O14_24 O 0.31616(17) 0.26428(17) 0.02996(13)
O19_24 O 0.2976(3) 0.2099(3) 0.0284(3)
O15_21 O 0.18384(17) 0.97004(13) 0.73572(17)
O18_21 O 0.2024(3) 0.9716(3) 0.7901(3)
O15_22 O 0.81616(17) 0.97004(13) 0.26428(17)
O18_22 O 0.7976(3) 0.9716(3) 0.2099(3)
O15_23 O 0.18384(17) 0.02996(13) 0.26428(17)
O18_23 O 0.2024(3) 0.0284(3) 0.2099(3)
O15_24 O 0.81616(17) 0.02996(13) 0.73572(17)
O18_24 O 0.7976(3) 0.0284(3) 0.7901(3)
O16_45 O 0.18384(17) 0.47004(13) 0.23572(17)
O17_45 O 0.2024(3) 0.4716(3) 0.2901(3)
O16_46 O 0.81616(17) 0.47004(13) 0.76428(17)
O17_46 O 0.7976(3) 0.4716(3) 0.7099(3)
O16_47 O 0.81616(17) 0.52996(13) 0.23572(17)
O17_47 O 0.7976(3) 0.5284(3) 0.2901(3)
O16_48 O 0.18384(17) 0.52996(13) 0.76428(17)
O17_48 O 0.2024(3) 0.5284(3) 0.7099(3)
C1_17 C 0.71275(14) 0.46374(10) 0.80753(17)
C2_17 C 0.70671(10) 0.43604(9) 0.81657(12)
C3_17 C 0.68467(10) 0.42845(7) 0.81079(11)
H1_17 H 0.6722 0.4402 0.8039
C4_17 C 0.67749(8) 0.39905(7) 0.81492(8)
C5_17 C 0.65004(9) 0.38761(9) 0.80514(10)
C6_17 C 0.64970(10) 0.36795(8) 0.82821(10)
C7_17 C 0.66843(11) 0.36704(8) 0.84857(9)
C8_17 C 0.68519(8) 0.39057(8) 0.83854(8)
C9_17 C 0.71056(11) 0.39896(12) 0.85604(11)
H2_17 H 0.7179 0.3905 0.8707
C10_17 C 0.65866(13) 0.37732(12) 0.78189(9)
H3_17 H 0.6583 0.3908 0.7685
H4_17 H 0.6764 0.3709 0.7840
H5_17 H 0.6473 0.3629 0.7767
C11_17 C 0.62785(8) 0.40864(11) 0.81062(15)
H6_17 H 0.6265 0.4117 0.8293
H7_17 H 0.6322 0.4249 0.8018
H8_17 H 0.6112 0.4022 0.8041
C12_17 C 0.72008(9) 0.42613(12) 0.84121(13)
H9_17 H 0.7342 0.4357 0.8482
C13_17 C 0.53626(10) 0.30753(17) 0.78725(14)
C14_17 C 0.56396(9) 0.31657(12) 0.79329(10)
C15_17 C 0.57155(7) 0.31079(11) 0.81533(10)
H10_17 H 0.5598 0.3039 0.8278
C16_17 C 0.60095(7) 0.31492(8) 0.82251(8)
C17_17 C 0.61239(9) 0.30514(10) 0.84996(9)
C18_17 C 0.63205(8) 0.32821(10) 0.85030(10)
C19_17 C 0.63296(8) 0.34857(9) 0.83157(11)
C20_17 C 0.60943(8) 0.33854(8) 0.81481(8)
C21_17 C 0.60104(12) 0.35604(11) 0.78944(11)
H11_17 H 0.6095 0.3707 0.7821
C22_17 C 0.62268(12) 0.28189(9) 0.84134(13)
H12_17 H 0.6092 0.2685 0.8417
H13_17 H 0.6291 0.2840 0.8236
H14_17 H 0.6371 0.2767 0.8527
C23_17 C 0.59136(11) 0.31062(15) 0.87215(8)
H15_17 H 0.5883 0.3293 0.8735
H16_17 H 0.5751 0.3018 0.8678
H17_17 H 0.5978 0.3041 0.8888
C24_17 C 0.57387(12) 0.34121(13) 0.77992(9)
H18_17 H 0.5643 0.3482 0.7658
C25_17 C 0.69247(17) 0.28725(14) 0.96374(10)
C26_17 C 0.68343(12) 0.29329(10) 0.93604(9)
C27_17 C 0.68921(11) 0.31533(10) 0.92845(7)
H19_17 H 0.6961 0.3278 0.9402
C28_17 C 0.68508(8) 0.32251(8) 0.89905(7)
C29_17 C 0.69486(10) 0.34996(9) 0.88761(9)
C30_17 C 0.67179(10) 0.35030(10) 0.86795(8)
C31_17 C 0.65143(9) 0.33157(11) 0.86704(8)
C32_17 C 0.66146(8) 0.31481(8) 0.89057(8)
C33_17 C 0.64396(11) 0.28944(11) 0.89896(12)
H20_17 H 0.6293 0.2821 0.8905
C34_17 C 0.71811(9) 0.34134(13) 0.87732(12)
H21_17 H 0.7315 0.3417 0.8908
H22_17 H 0.7160 0.3236 0.8709
H23_17 H 0.7233 0.3527 0.8629
C35_17 C 0.68938(15) 0.37215(8) 0.90864(11)
H24_17 H 0.6707 0.3735 0.9117
H25_17 H 0.6982 0.3678 0.9249
H26_17 H 0.6959 0.3888 0.9022
C36_17 C 0.65879(13) 0.27992(9) 0.92613(12)
H27_17 H 0.6518 0.2658 0.9357
C37_17 C 0.78725(14) 0.30753(17) 0.96374(10)
C38_17 C 0.79329(10) 0.31657(12) 0.93604(9)
C39_17 C 0.81533(10) 0.31079(11) 0.92845(7)
H28_17 H 0.8278 0.3039 0.9402
C40_17 C 0.82251(8) 0.31492(8) 0.89905(7)
C41_17 C 0.84996(9) 0.30514(10) 0.88761(9)
C42_17 C 0.85030(10) 0.32821(10) 0.86795(8)
C43_17 C 0.83157(11) 0.34857(9) 0.86704(8)
C44_17 C 0.81481(8) 0.33854(8) 0.89057(8)
C45_17 C 0.78944(11) 0.35604(11) 0.89896(12)
H29_17 H 0.7821 0.3707 0.8905
C46_17 C 0.84134(13) 0.28189(9) 0.87732(12)
H30_17 H 0.8417 0.2685 0.8908
H31_17 H 0.8236 0.2840 0.8709
H32_17 H 0.8527 0.2767 0.8629
C47_17 C 0.87215(8) 0.31062(15) 0.90864(11)
H33_17 H 0.8735 0.3293 0.9117
H34_17 H 0.8678 0.3018 0.9249
H35_17 H 0.8888 0.3041 0.9022
C48_17 C 0.77992(9) 0.34121(13) 0.92613(12)
H36_17 H 0.7658 0.3482 0.9357
C49_17 C 0.96374(10) 0.28725(14) 0.80753(17)
C50_17 C 0.93604(9) 0.29329(10) 0.81657(12)
C51_17 C 0.92845(7) 0.31533(10) 0.81079(11)
H37_17 H 0.9402 0.3278 0.8039
C52_17 C 0.89905(7) 0.32251(8) 0.81492(8)
C53_17 C 0.88761(9) 0.34996(9) 0.80514(10)
C54_17 C 0.86795(8) 0.35030(10) 0.82821(10)
C55_17 C 0.86704(8) 0.33157(11) 0.84857(9)
C56_17 C 0.89057(8) 0.31481(8) 0.83854(8)
C57_17 C 0.89896(12) 0.28944(11) 0.85604(11)
H38_17 H 0.8905 0.2821 0.8707
C58_17 C 0.87732(12) 0.34134(13) 0.78189(9)
H39_17 H 0.8908 0.3417 0.7685
H40_17 H 0.8709 0.3236 0.7840
H41_17 H 0.8629 0.3527 0.7767
C59_17 C 0.90864(11) 0.37215(8) 0.81062(15)
H42_17 H 0.9117 0.3735 0.8293
H43_17 H 0.9249 0.3678 0.8018
H44_17 H 0.9022 0.3888 0.8041
C60_17 C 0.92613(12) 0.27992(9) 0.84121(13)
H45_17 H 0.9357 0.2658 0.8482
C61_17 C 0.80753(17) 0.46374(10) 0.78725(14)
C62_17 C 0.81657(12) 0.43604(9) 0.79329(10)
C63_17 C 0.81079(11) 0.42845(7) 0.81533(10)
H46_17 H 0.8039 0.4402 0.8278
C64_17 C 0.81492(8) 0.39905(7) 0.82251(8)
C65_17 C 0.80514(10) 0.38761(9) 0.84996(9)
C66_17 C 0.82821(10) 0.36795(8) 0.85030(10)
C67_17 C 0.84857(9) 0.36704(8) 0.83157(11)
C68_17 C 0.83854(8) 0.39057(8) 0.81481(8)
C69_17 C 0.85604(11) 0.39896(12) 0.78944(11)
H47_17 H 0.8707 0.3905 0.7821
C70_17 C 0.78189(9) 0.37732(12) 0.84134(13)
H48_17 H 0.7685 0.3908 0.8417
H49_17 H 0.7840 0.3709 0.8236
H50_17 H 0.7767 0.3629 0.8527
C71_17 C 0.81062(15) 0.40864(11) 0.87215(8)
H51_17 H 0.8293 0.4117 0.8735
H52_17 H 0.8018 0.4249 0.8678
H53_17 H 0.8041 0.4022 0.8888
C72_17 C 0.84121(13) 0.42613(12) 0.77992(9)
H54_17 H 0.8482 0.4357 0.7658
C1_18 C 0.28725(14) 0.53626(10) 0.80753(17)
C2_18 C 0.29329(10) 0.56396(9) 0.81657(12)
C3_18 C 0.31533(10) 0.57155(7) 0.81079(11)
H1_18 H 0.3278 0.5598 0.8039
C4_18 C 0.32251(8) 0.60095(7) 0.81492(8)
C5_18 C 0.34996(9) 0.61239(9) 0.80514(10)
C6_18 C 0.35030(10) 0.63205(8) 0.82821(10)
C7_18 C 0.33157(11) 0.63296(8) 0.84857(9)
C8_18 C 0.31481(8) 0.60943(8) 0.83854(8)
C9_18 C 0.28944(11) 0.60104(12) 0.85604(11)
H2_18 H 0.2821 0.6095 0.8707
C10_18 C 0.34134(13) 0.62268(12) 0.78189(9)
H3_18 H 0.3417 0.6092 0.7685
H4_18 H 0.3236 0.6291 0.7840
H5_18 H 0.3527 0.6371 0.7767
C11_18 C 0.37215(8) 0.59136(11) 0.81062(15)
H6_18 H 0.3735 0.5883 0.8293
H7_18 H 0.3678 0.5751 0.8018
H8_18 H 0.3888 0.5978 0.8041
C12_18 C 0.27992(9) 0.57387(12) 0.84121(13)
H9_18 H 0.2658 0.5643 0.8482
C13_18 C 0.46374(10) 0.69247(17) 0.78725(14)
C14_18 C 0.43604(9) 0.68343(12) 0.79329(10)
C15_18 C 0.42845(7) 0.68921(11) 0.81533(10)
H10_18 H 0.4402 0.6961 0.8278
C16_18 C 0.39905(7) 0.68508(8) 0.82251(8)
C17_18 C 0.38761(9) 0.69486(10) 0.84996(9)
C18_18 C 0.36795(8) 0.67179(10) 0.85030(10)
C19_18 C 0.36704(8) 0.65143(9) 0.83157(11)
C20_18 C 0.39057(8) 0.66146(8) 0.81481(8)
C21_18 C 0.39896(12) 0.64396(11) 0.78944(11)
H11_18 H 0.3905 0.6293 0.7821
C22_18 C 0.37732(12) 0.71811(9) 0.84134(13)
H12_18 H 0.3908 0.7315 0.8417
H13_18 H 0.3709 0.7160 0.8236
H14_18 H 0.3629 0.7233 0.8527
C23_18 C 0.40864(11) 0.68938(15) 0.87215(8)
H15_18 H 0.4117 0.6707 0.8735
H16_18 H 0.4249 0.6982 0.8678
H17_18 H 0.4022 0.6959 0.8888
C24_18 C 0.42613(12) 0.65879(13) 0.77992(9)
H18_18 H 0.4357 0.6518 0.7658
C25_18 C 0.30753(17) 0.71275(14) 0.96374(10)
C26_18 C 0.31657(12) 0.70671(10) 0.93604(9)
C27_18 C 0.31079(11) 0.68467(10) 0.92845(7)
H19_18 H 0.3039 0.6722 0.9402
C28_18 C 0.31492(8) 0.67749(8) 0.89905(7)
C29_18 C 0.30514(10) 0.65004(9) 0.88761(9)
C30_18 C 0.32821(10) 0.64970(10) 0.86795(8)
C31_18 C 0.34857(9) 0.66843(11) 0.86704(8)
C32_18 C 0.33854(8) 0.68519(8) 0.89057(8)
C33_18 C 0.35604(11) 0.71056(11) 0.89896(12)
H20_18 H 0.3707 0.7179 0.8905
C34_18 C 0.28189(9) 0.65866(13) 0.87732(12)
H21_18 H 0.2685 0.6583 0.8908
H22_18 H 0.2840 0.6764 0.8709
H23_18 H 0.2767 0.6473 0.8629
C35_18 C 0.31062(15) 0.62785(8) 0.90864(11)
H24_18 H 0.3293 0.6265 0.9117
H25_18 H 0.3018 0.6322 0.9249
H26_18 H 0.3041 0.6112 0.9022
C36_18 C 0.34121(13) 0.72008(9) 0.92613(12)
H27_18 H 0.3482 0.7342 0.9357
C37_18 C 0.21275(14) 0.69247(17) 0.96374(10)
C38_18 C 0.20671(10) 0.68343(12) 0.93604(9)
C39_18 C 0.18467(10) 0.68921(11) 0.92845(7)
H28_18 H 0.1722 0.6961 0.9402
C40_18 C 0.17749(8) 0.68508(8) 0.89905(7)
C41_18 C 0.15004(9) 0.69486(10) 0.88761(9)
C42_18 C 0.14970(10) 0.67179(10) 0.86795(8)
C43_18 C 0.16843(11) 0.65143(9) 0.86704(8)
C44_18 C 0.18519(8) 0.66146(8) 0.89057(8)
C45_18 C 0.21056(11) 0.64396(11) 0.89896(12)
H29_18 H 0.2179 0.6293 0.8905
C46_18 C 0.15866(13) 0.71811(9) 0.87732(12)
H30_18 H 0.1583 0.7315 0.8908
H31_18 H 0.1764 0.7160 0.8709
H32_18 H 0.1473 0.7233 0.8629
C47_18 C 0.12785(8) 0.68938(15) 0.90864(11)
H33_18 H 0.1265 0.6707 0.9117
H34_18 H 0.1322 0.6982 0.9249
H35_18 H 0.1112 0.6959 0.9022
C48_18 C 0.22008(9) 0.65879(13) 0.92613(12)
H36_18 H 0.2342 0.6518 0.9357
C49_18 C 0.03626(10) 0.71275(14) 0.80753(17)
C50_18 C 0.06396(9) 0.70671(10) 0.81657(12)
C51_18 C 0.07155(7) 0.68467(10) 0.81079(11)
H37_18 H 0.0598 0.6722 0.8039
C52_18 C 0.10095(7) 0.67749(8) 0.81492(8)
C53_18 C 0.11239(9) 0.65004(9) 0.80514(10)
C54_18 C 0.13205(8) 0.64970(10) 0.82821(10)
C55_18 C 0.13296(8) 0.66843(11) 0.84857(9)
C56_18 C 0.10943(8) 0.68519(8) 0.83854(8)
C57_18 C 0.10104(12) 0.71056(11) 0.85604(11)
H38_18 H 0.1095 0.7179 0.8707
C58_18 C 0.12268(12) 0.65866(13) 0.78189(9)
H39_18 H 0.1092 0.6583 0.7685
H40_18 H 0.1291 0.6764 0.7840
H41_18 H 0.1371 0.6473 0.7767
C59_18 C 0.09136(11) 0.62785(8) 0.81062(15)
H42_18 H 0.0883 0.6265 0.8293
H43_18 H 0.0751 0.6322 0.8018
H44_18 H 0.0978 0.6112 0.8041
C60_18 C 0.07387(12) 0.72008(9) 0.84121(13)
H45_18 H 0.0643 0.7342 0.8482
C61_18 C 0.19247(17) 0.53626(10) 0.78725(14)
C62_18 C 0.18343(12) 0.56396(9) 0.79329(10)
C63_18 C 0.18921(11) 0.57155(7) 0.81533(10)
H46_18 H 0.1961 0.5598 0.8278
C64_18 C 0.18508(8) 0.60095(7) 0.82251(8)
C65_18 C 0.19486(10) 0.61239(9) 0.84996(9)
C66_18 C 0.17179(10) 0.63205(8) 0.85030(10)
C67_18 C 0.15143(9) 0.63296(8) 0.83157(11)
C68_18 C 0.16146(8) 0.60943(8) 0.81481(8)
C69_18 C 0.14396(11) 0.60104(12) 0.78944(11)
H47_18 H 0.1293 0.6095 0.7821
C70_18 C 0.21811(9) 0.62268(12) 0.84134(13)
H48_18 H 0.2315 0.6092 0.8417
H49_18 H 0.2160 0.6291 0.8236
H50_18 H 0.2233 0.6371 0.8527
C71_18 C 0.18938(15) 0.59136(11) 0.87215(8)
H51_18 H 0.1707 0.5883 0.8735
H52_18 H 0.1982 0.5751 0.8678
H53_18 H 0.1959 0.5978 0.8888
C72_18 C 0.15879(13) 0.57387(12) 0.77992(9)
H54_18 H 0.1518 0.5643 0.7658
C1_19 C 0.28725(14) 0.46374(10) 0.19247(17)
C2_19 C 0.29329(10) 0.43604(9) 0.18343(12)
C3_19 C 0.31533(10) 0.42845(7) 0.18921(11)
H1_19 H 0.3278 0.4402 0.1961
C4_19 C 0.32251(8) 0.39905(7) 0.18508(8)
C5_19 C 0.34996(9) 0.38761(9) 0.19486(10)
C6_19 C 0.35030(10) 0.36795(8) 0.17179(10)
C7_19 C 0.33157(11) 0.36704(8) 0.15143(9)
C8_19 C 0.31481(8) 0.39057(8) 0.16146(8)
C9_19 C 0.28944(11) 0.39896(12) 0.14396(11)
H2_19 H 0.2821 0.3905 0.1293
C10_19 C 0.34134(13) 0.37732(12) 0.21811(9)
H3_19 H 0.3417 0.3908 0.2315
H4_19 H 0.3236 0.3709 0.2160
H5_19 H 0.3527 0.3629 0.2233
C11_19 C 0.37215(8) 0.40864(11) 0.18938(15)
H6_19 H 0.3735 0.4117 0.1707
H7_19 H 0.3678 0.4249 0.1982
H8_19 H 0.3888 0.4022 0.1959
C12_19 C 0.27992(9) 0.42613(12) 0.15879(13)
H9_19 H 0.2658 0.4357 0.1518
C13_19 C 0.46374(10) 0.30753(17) 0.21275(14)
C14_19 C 0.43604(9) 0.31657(12) 0.20671(10)
C15_19 C 0.42845(7) 0.31079(11) 0.18467(10)
H10_19 H 0.4402 0.3039 0.1722
C16_19 C 0.39905(7) 0.31492(8) 0.17749(8)
C17_19 C 0.38761(9) 0.30514(10) 0.15004(9)
C18_19 C 0.36795(8) 0.32821(10) 0.14970(10)
C19_19 C 0.36704(8) 0.34857(9) 0.16843(11)
C20_19 C 0.39057(8) 0.33854(8) 0.18519(8)
C21_19 C 0.39896(12) 0.35604(11) 0.21056(11)
H11_19 H 0.3905 0.3707 0.2179
C22_19 C 0.37732(12) 0.28189(9) 0.15866(13)
H12_19 H 0.3908 0.2685 0.1583
H13_19 H 0.3709 0.2840 0.1764
H14_19 H 0.3629 0.2767 0.1473
C23_19 C 0.40864(11) 0.31062(15) 0.12785(8)
H15_19 H 0.4117 0.3293 0.1265
H16_19 H 0.4249 0.3018 0.1322
H17_19 H 0.4022 0.3041 0.1112
C24_19 C 0.42613(12) 0.34121(13) 0.22008(9)
H18_19 H 0.4357 0.3482 0.2342
C25_19 C 0.30753(17) 0.28725(14) 0.03626(10)
C26_19 C 0.31657(12) 0.29329(10) 0.06396(9)
C27_19 C 0.31079(11) 0.31533(10) 0.07155(7)
H19_19 H 0.3039 0.3278 0.0598
C28_19 C 0.31492(8) 0.32251(8) 0.10095(7)
C29_19 C 0.30514(10) 0.34996(9) 0.11239(9)
C30_19 C 0.32821(10) 0.35030(10) 0.13205(8)
C31_19 C 0.34857(9) 0.33157(11) 0.13296(8)
C32_19 C 0.33854(8) 0.31481(8) 0.10943(8)
C33_19 C 0.35604(11) 0.28944(11) 0.10104(12)
H20_19 H 0.3707 0.2821 0.1095
C34_19 C 0.28189(9) 0.34134(13) 0.12268(12)
H21_19 H 0.2685 0.3417 0.1092
H22_19 H 0.2840 0.3236 0.1291
H23_19 H 0.2767 0.3527 0.1371
C35_19 C 0.31062(15) 0.37215(8) 0.09136(11)
H24_19 H 0.3293 0.3735 0.0883
H25_19 H 0.3018 0.3678 0.0751
H26_19 H 0.3041 0.3888 0.0978
C36_19 C 0.34121(13) 0.27992(9) 0.07387(12)
H27_19 H 0.3482 0.2658 0.0643
C37_19 C 0.21275(14) 0.30753(17) 0.03626(10)
C38_19 C 0.20671(10) 0.31657(12) 0.06396(9)
C39_19 C 0.18467(10) 0.31079(11) 0.07155(7)
H28_19 H 0.1722 0.3039 0.0598
C40_19 C 0.17749(8) 0.31492(8) 0.10095(7)
C41_19 C 0.15004(9) 0.30514(10) 0.11239(9)
C42_19 C 0.14970(10) 0.32821(10) 0.13205(8)
C43_19 C 0.16843(11) 0.34857(9) 0.13296(8)
C44_19 C 0.18519(8) 0.33854(8) 0.10943(8)
C45_19 C 0.21056(11) 0.35604(11) 0.10104(12)
H29_19 H 0.2179 0.3707 0.1095
C46_19 C 0.15866(13) 0.28189(9) 0.12268(12)
H30_19 H 0.1583 0.2685 0.1092
H31_19 H 0.1764 0.2840 0.1291
H32_19 H 0.1473 0.2767 0.1371
C47_19 C 0.12785(8) 0.31062(15) 0.09136(11)
H33_19 H 0.1265 0.3293 0.0883
H34_19 H 0.1322 0.3018 0.0751
H35_19 H 0.1112 0.3041 0.0978
C48_19 C 0.22008(9) 0.34121(13) 0.07387(12)
H36_19 H 0.2342 0.3482 0.0643
C49_19 C 0.03626(10) 0.28725(14) 0.19247(17)
C50_19 C 0.06396(9) 0.29329(10) 0.18343(12)
C51_19 C 0.07155(7) 0.31533(10) 0.18921(11)
H37_19 H 0.0598 0.3278 0.1961
C52_19 C 0.10095(7) 0.32251(8) 0.18508(8)
C53_19 C 0.11239(9) 0.34996(9) 0.19486(10)
C54_19 C 0.13205(8) 0.35030(10) 0.17179(10)
C55_19 C 0.13296(8) 0.33157(11) 0.15143(9)
C56_19 C 0.10943(8) 0.31481(8) 0.16146(8)
C57_19 C 0.10104(12) 0.28944(11) 0.14396(11)
H38_19 H 0.1095 0.2821 0.1293
C58_19 C 0.12268(12) 0.34134(13) 0.21811(9)
H39_19 H 0.1092 0.3417 0.2315
H40_19 H 0.1291 0.3236 0.2160
H41_19 H 0.1371 0.3527 0.2233
C59_19 C 0.09136(11) 0.37215(8) 0.18938(15)
H42_19 H 0.0883 0.3735 0.1707
H43_19 H 0.0751 0.3678 0.1982
H44_19 H 0.0978 0.3888 0.1959
C60_19 C 0.07387(12) 0.27992(9) 0.15879(13)
H45_19 H 0.0643 0.2658 0.1518
C61_19 C 0.19247(17) 0.46374(10) 0.21275(14)
C62_19 C 0.18343(12) 0.43604(9) 0.20671(10)
C63_19 C 0.18921(11) 0.42845(7) 0.18467(10)
H46_19 H 0.1961 0.4402 0.1722
C64_19 C 0.18508(8) 0.39905(7) 0.17749(8)
C65_19 C 0.19486(10) 0.38761(9) 0.15004(9)
C66_19 C 0.17179(10) 0.36795(8) 0.14970(10)
C67_19 C 0.15143(9) 0.36704(8) 0.16843(11)
C68_19 C 0.16146(8) 0.39057(8) 0.18519(8)
C69_19 C 0.14396(11) 0.39896(12) 0.21056(11)
H47_19 H 0.1293 0.3905 0.2179
C70_19 C 0.21811(9) 0.37732(12) 0.15866(13)
H48_19 H 0.2315 0.3908 0.1583
H49_19 H 0.2160 0.3709 0.1764
H50_19 H 0.2233 0.3629 0.1473
C71_19 C 0.18938(15) 0.40864(11) 0.12785(8)
H51_19 H 0.1707 0.4117 0.1265
H52_19 H 0.1982 0.4249 0.1322
H53_19 H 0.1959 0.4022 0.1112
C72_19 C 0.15879(13) 0.42613(12) 0.22008(9)
H54_19 H 0.1518 0.4357 0.2342
C1_20 C 0.71275(14) 0.53626(10) 0.19247(17)
C2_20 C 0.70671(10) 0.56396(9) 0.18343(12)
C3_20 C 0.68467(10) 0.57155(7) 0.18921(11)
H1_20 H 0.6722 0.5598 0.1961
C4_20 C 0.67749(8) 0.60095(7) 0.18508(8)
C5_20 C 0.65004(9) 0.61239(9) 0.19486(10)
C6_20 C 0.64970(10) 0.63205(8) 0.17179(10)
C7_20 C 0.66843(11) 0.63296(8) 0.15143(9)
C8_20 C 0.68519(8) 0.60943(8) 0.16146(8)
C9_20 C 0.71056(11) 0.60104(12) 0.14396(11)
H2_20 H 0.7179 0.6095 0.1293
C10_20 C 0.65866(13) 0.62268(12) 0.21811(9)
H3_20 H 0.6583 0.6092 0.2315
H4_20 H 0.6764 0.6291 0.2160
H5_20 H 0.6473 0.6371 0.2233
C11_20 C 0.62785(8) 0.59136(11) 0.18938(15)
H6_20 H 0.6265 0.5883 0.1707
H7_20 H 0.6322 0.5751 0.1982
H8_20 H 0.6112 0.5978 0.1959
C12_20 C 0.72008(9) 0.57387(12) 0.15879(13)
H9_20 H 0.7342 0.5643 0.1518
C13_20 C 0.53626(10) 0.69247(17) 0.21275(14)
C14_20 C 0.56396(9) 0.68343(12) 0.20671(10)
C15_20 C 0.57155(7) 0.68921(11) 0.18467(10)
H10_20 H 0.5598 0.6961 0.1722
C16_20 C 0.60095(7) 0.68508(8) 0.17749(8)
C17_20 C 0.61239(9) 0.69486(10) 0.15004(9)
C18_20 C 0.63205(8) 0.67179(10) 0.14970(10)
C19_20 C 0.63296(8) 0.65143(9) 0.16843(11)
C20_20 C 0.60943(8) 0.66146(8) 0.18519(8)
C21_20 C 0.60104(12) 0.64396(11) 0.21056(11)
H11_20 H 0.6095 0.6293 0.2179
C22_20 C 0.62268(12) 0.71811(9) 0.15866(13)
H12_20 H 0.6092 0.7315 0.1583
H13_20 H 0.6291 0.7160 0.1764
H14_20 H 0.6371 0.7233 0.1473
C23_20 C 0.59136(11) 0.68938(15) 0.12785(8)
H15_20 H 0.5883 0.6707 0.1265
H16_20 H 0.5751 0.6982 0.1322
H17_20 H 0.5978 0.6959 0.1112
C24_20 C 0.57387(12) 0.65879(13) 0.22008(9)
H18_20 H 0.5643 0.6518 0.2342
C25_20 C 0.69247(17) 0.71275(14) 0.03626(10)
C26_20 C 0.68343(12) 0.70671(10) 0.06396(9)
C27_20 C 0.68921(11) 0.68467(10) 0.07155(7)
H19_20 H 0.6961 0.6722 0.0598
C28_20 C 0.68508(8) 0.67749(8) 0.10095(7)
C29_20 C 0.69486(10) 0.65004(9) 0.11239(9)
C30_20 C 0.67179(10) 0.64970(10) 0.13205(8)
C31_20 C 0.65143(9) 0.66843(11) 0.13296(8)
C32_20 C 0.66146(8) 0.68519(8) 0.10943(8)
C33_20 C 0.64396(11) 0.71056(11) 0.10104(12)
H20_20 H 0.6293 0.7179 0.1095
C34_20 C 0.71811(9) 0.65866(13) 0.12268(12)
H21_20 H 0.7315 0.6583 0.1092
H22_20 H 0.7160 0.6764 0.1291
H23_20 H 0.7233 0.6473 0.1371
C35_20 C 0.68938(15) 0.62785(8) 0.09136(11)
H24_20 H 0.6707 0.6265 0.0883
H25_20 H 0.6982 0.6322 0.0751
H26_20 H 0.6959 0.6112 0.0978
C36_20 C 0.65879(13) 0.72008(9) 0.07387(12)
H27_20 H 0.6518 0.7342 0.0643
C37_20 C 0.78725(14) 0.69247(17) 0.03626(10)
C38_20 C 0.79329(10) 0.68343(12) 0.06396(9)
C39_20 C 0.81533(10) 0.68921(11) 0.07155(7)
H28_20 H 0.8278 0.6961 0.0598
C40_20 C 0.82251(8) 0.68508(8) 0.10095(7)
C41_20 C 0.84996(9) 0.69486(10) 0.11239(9)
C42_20 C 0.85030(10) 0.67179(10) 0.13205(8)
C43_20 C 0.83157(11) 0.65143(9) 0.13296(8)
C44_20 C 0.81481(8) 0.66146(8) 0.10943(8)
C45_20 C 0.78944(11) 0.64396(11) 0.10104(12)
H29_20 H 0.7821 0.6293 0.1095
C46_20 C 0.84134(13) 0.71811(9) 0.12268(12)
H30_20 H 0.8417 0.7315 0.1092
H31_20 H 0.8236 0.7160 0.1291
H32_20 H 0.8527 0.7233 0.1371
C47_20 C 0.87215(8) 0.68938(15) 0.09136(11)
H33_20 H 0.8735 0.6707 0.0883
H34_20 H 0.8678 0.6982 0.0751
H35_20 H 0.8888 0.6959 0.0978
C48_20 C 0.77992(9) 0.65879(13) 0.07387(12)
H36_20 H 0.7658 0.6518 0.0643
C49_20 C 0.96374(10) 0.71275(14) 0.19247(17)
C50_20 C 0.93604(9) 0.70671(10) 0.18343(12)
C51_20 C 0.92845(7) 0.68467(10) 0.18921(11)
H37_20 H 0.9402 0.6722 0.1961
C52_20 C 0.89905(7) 0.67749(8) 0.18508(8)
C53_20 C 0.88761(9) 0.65004(9) 0.19486(10)
C54_20 C 0.86795(8) 0.64970(10) 0.17179(10)
C55_20 C 0.86704(8) 0.66843(11) 0.15143(9)
C56_20 C 0.89057(8) 0.68519(8) 0.16146(8)
C57_20 C 0.89896(12) 0.71056(11) 0.14396(11)
H38_20 H 0.8905 0.7179 0.1293
C58_20 C 0.87732(12) 0.65866(13) 0.21811(9)
H39_20 H 0.8908 0.6583 0.2315
H40_20 H 0.8709 0.6764 0.2160
H41_20 H 0.8629 0.6473 0.2233
C59_20 C 0.90864(11) 0.62785(8) 0.18938(15)
H42_20 H 0.9117 0.6265 0.1707
H43_20 H 0.9249 0.6322 0.1982
H44_20 H 0.9022 0.6112 0.1959
C60_20 C 0.92613(12) 0.72008(9) 0.15879(13)
H45_20 H 0.9357 0.7342 0.1518
C61_20 C 0.80753(17) 0.53626(10) 0.21275(14)
C62_20 C 0.81657(12) 0.56396(9) 0.20671(10)
C63_20 C 0.81079(11) 0.57155(7) 0.18467(10)
H46_20 H 0.8039 0.5598 0.1722
C64_20 C 0.81492(8) 0.60095(7) 0.17749(8)
C65_20 C 0.80514(10) 0.61239(9) 0.15004(9)
C66_20 C 0.82821(10) 0.63205(8) 0.14970(10)
C67_20 C 0.84857(9) 0.63296(8) 0.16843(11)
C68_20 C 0.83854(8) 0.60943(8) 0.18519(8)
C69_20 C 0.85604(11) 0.60104(12) 0.21056(11)
H47_20 H 0.8707 0.6095 0.2179
C70_20 C 0.78189(9) 0.62268(12) 0.15866(13)
H48_20 H 0.7685 0.6092 0.1583
H49_20 H 0.7840 0.6291 0.1764
H50_20 H 0.7767 0.6371 0.1473
C71_20 C 0.81062(15) 0.59136(11) 0.12785(8)
H51_20 H 0.8293 0.5883 0.1265
H52_20 H 0.8018 0.5751 0.1322
H53_20 H 0.8041 0.5978 0.1112
C72_20 C 0.84121(13) 0.57387(12) 0.22008(9)
H54_20 H 0.8482 0.5643 0.2342
C1_21 C 0.80753(17) 0.71275(14) 0.46374(10)
C2_21 C 0.81657(12) 0.70671(10) 0.43604(9)
C3_21 C 0.81079(11) 0.68467(10) 0.42845(7)
H1_21 H 0.8039 0.6722 0.4402
C4_21 C 0.81492(8) 0.67749(8) 0.39905(7)
C5_21 C 0.80514(10) 0.65004(9) 0.38761(9)
C6_21 C 0.82821(10) 0.64970(10) 0.36795(8)
C7_21 C 0.84857(9) 0.66843(11) 0.36704(8)
C8_21 C 0.83854(8) 0.68519(8) 0.39057(8)
C9_21 C 0.85604(11) 0.71056(11) 0.39896(12)
H2_21 H 0.8707 0.7179 0.3905
C10_21 C 0.78189(9) 0.65866(13) 0.37732(12)
H3_21 H 0.7685 0.6583 0.3908
H4_21 H 0.7840 0.6764 0.3709
H5_21 H 0.7767 0.6473 0.3629
C11_21 C 0.81062(15) 0.62785(8) 0.40864(11)
H6_21 H 0.8293 0.6265 0.4117
H7_21 H 0.8018 0.6322 0.4249
H8_21 H 0.8041 0.6112 0.4022
C12_21 C 0.84121(13) 0.72008(9) 0.42613(12)
H9_21 H 0.8482 0.7342 0.4357
C13_21 C 0.78725(14) 0.53626(10) 0.30753(17)
C14_21 C 0.79329(10) 0.56396(9) 0.31657(12)
C15_21 C 0.81533(10) 0.57155(7) 0.31079(11)
H10_21 H 0.8278 0.5598 0.3039
C16_21 C 0.82251(8) 0.60095(7) 0.31492(8)
C17_21 C 0.84996(9) 0.61239(9) 0.30514(10)
C18_21 C 0.85030(10) 0.63205(8) 0.32821(10)
C19_21 C 0.83157(11) 0.63296(8) 0.34857(9)
C20_21 C 0.81481(8) 0.60943(8) 0.33854(8)
C21_21 C 0.78944(11) 0.60104(12) 0.35604(11)
H11_21 H 0.7821 0.6095 0.3707
C22_21 C 0.84134(13) 0.62268(12) 0.28189(9)
H12_21 H 0.8417 0.6092 0.2685
H13_21 H 0.8236 0.6291 0.2840
H14_21 H 0.8527 0.6371 0.2767
C23_21 C 0.87215(8) 0.59136(11) 0.31062(15)
H15_21 H 0.8735 0.5883 0.3293
H16_21 H 0.8678 0.5751 0.3018
H17_21 H 0.8888 0.5978 0.3041
C24_21 C 0.77992(9) 0.57387(12) 0.34121(13)
H18_21 H 0.7658 0.5643 0.3482
C25_21 C 0.96374(10) 0.69247(17) 0.28725(14)
C26_21 C 0.93604(9) 0.68343(12) 0.29329(10)
C27_21 C 0.92845(7) 0.68921(11) 0.31533(10)
H19_21 H 0.9402 0.6961 0.3278
C28_21 C 0.89905(7) 0.68508(8) 0.32251(8)
C29_21 C 0.88761(9) 0.69486(10) 0.34996(9)
C30_21 C 0.86795(8) 0.67179(10) 0.35030(10)
C31_21 C 0.86704(8) 0.65143(9) 0.33157(11)
C32_21 C 0.89057(8) 0.66146(8) 0.31481(8)
C33_21 C 0.89896(12) 0.64396(11) 0.28944(11)
H20_21 H 0.8905 0.6293 0.2821
C34_21 C 0.87732(12) 0.71811(9) 0.34134(13)
H21_21 H 0.8908 0.7315 0.3417
H22_21 H 0.8709 0.7160 0.3236
H23_21 H 0.8629 0.7233 0.3527
C35_21 C 0.90864(11) 0.68938(15) 0.37215(8)
H24_21 H 0.9117 0.6707 0.3735
H25_21 H 0.9249 0.6982 0.3678
H26_21 H 0.9022 0.6959 0.3888
C36_21 C 0.92613(12) 0.65879(13) 0.27992(9)
H27_21 H 0.9357 0.6518 0.2658
C37_21 C 0.96374(10) 0.78725(14) 0.30753(17)
C38_21 C 0.93604(9) 0.79329(10) 0.31657(12)
C39_21 C 0.92845(7) 0.81533(10) 0.31079(11)
H28_21 H 0.9402 0.8278 0.3039
C40_21 C 0.89905(7) 0.82251(8) 0.31492(8)
C41_21 C 0.88761(9) 0.84996(9) 0.30514(10)
C42_21 C 0.86795(8) 0.85030(10) 0.32821(10)
C43_21 C 0.86704(8) 0.83157(11) 0.34857(9)
C44_21 C 0.89057(8) 0.81481(8) 0.33854(8)
C45_21 C 0.89896(12) 0.78944(11) 0.35604(11)
H29_21 H 0.8905 0.7821 0.3707
C46_21 C 0.87732(12) 0.84134(13) 0.28189(9)
H30_21 H 0.8908 0.8417 0.2685
H31_21 H 0.8709 0.8236 0.2840
H32_21 H 0.8629 0.8527 0.2767
C47_21 C 0.90864(11) 0.87215(8) 0.31062(15)
H33_21 H 0.9117 0.8735 0.3293
H34_21 H 0.9249 0.8678 0.3018
H35_21 H 0.9022 0.8888 0.3041
C48_21 C 0.92613(12) 0.77992(9) 0.34121(13)
H36_21 H 0.9357 0.7658 0.3482
C49_21 C 0.80753(17) 0.96374(10) 0.28725(14)
C50_21 C 0.81657(12) 0.93604(9) 0.29329(10)
C51_21 C 0.81079(11) 0.92845(7) 0.31533(10)
H37_21 H 0.8039 0.9402 0.3278
C52_21 C 0.81492(8) 0.89905(7) 0.32251(8)
C53_21 C 0.80514(10) 0.88761(9) 0.34996(9)
C54_21 C 0.82821(10) 0.86795(8) 0.35030(10)
C55_21 C 0.84857(9) 0.86704(8) 0.33157(11)
C56_21 C 0.83854(8) 0.89057(8) 0.31481(8)
C57_21 C 0.85604(11) 0.89896(12) 0.28944(11)
H38_21 H 0.8707 0.8905 0.2821
C58_21 C 0.78189(9) 0.87732(12) 0.34134(13)
H39_21 H 0.7685 0.8908 0.3417
H40_21 H 0.7840 0.8709 0.3236
H41_21 H 0.7767 0.8629 0.3527
C59_21 C 0.81062(15) 0.90864(11) 0.37215(8)
H42_21 H 0.8293 0.9117 0.3735
H43_21 H 0.8018 0.9249 0.3678
H44_21 H 0.8041 0.9022 0.3888
C60_21 C 0.84121(13) 0.92613(12) 0.27992(9)
H45_21 H 0.8482 0.9357 0.2658
C61_21 C 0.78725(14) 0.80753(17) 0.46374(10)
C62_21 C 0.79329(10) 0.81657(12) 0.43604(9)
C63_21 C 0.81533(10) 0.81079(11) 0.42845(7)
H46_21 H 0.8278 0.8039 0.4402
C64_21 C 0.82251(8) 0.81492(8) 0.39905(7)
C65_21 C 0.84996(9) 0.80514(10) 0.38761(9)
C66_21 C 0.85030(10) 0.82821(10) 0.36795(8)
C67_21 C 0.83157(11) 0.84857(9) 0.36704(8)
C68_21 C 0.81481(8) 0.83854(8) 0.39057(8)
C69_21 C 0.78944(11) 0.85604(11) 0.39896(12)
H47_21 H 0.7821 0.8707 0.3905
C70_21 C 0.84134(13) 0.78189(9) 0.37732(12)
H48_21 H 0.8417 0.7685 0.3908
H49_21 H 0.8236 0.7840 0.3709
H50_21 H 0.8527 0.7767 0.3629
C71_21 C 0.87215(8) 0.81062(15) 0.40864(11)
H51_21 H 0.8735 0.8293 0.4117
H52_21 H 0.8678 0.8018 0.4249
H53_21 H 0.8888 0.8041 0.4022
C72_21 C 0.77992(9) 0.84121(13) 0.42613(12)
H54_21 H 0.7658 0.8482 0.4357
C1_22 C 0.80753(17) 0.28725(14) 0.53626(10)
C2_22 C 0.81657(12) 0.29329(10) 0.56396(9)
C3_22 C 0.81079(11) 0.31533(10) 0.57155(7)
H1_22 H 0.8039 0.3278 0.5598
C4_22 C 0.81492(8) 0.32251(8) 0.60095(7)
C5_22 C 0.80514(10) 0.34996(9) 0.61239(9)
C6_22 C 0.82821(10) 0.35030(10) 0.63205(8)
C7_22 C 0.84857(9) 0.33157(11) 0.63296(8)
C8_22 C 0.83854(8) 0.31481(8) 0.60943(8)
C9_22 C 0.85604(11) 0.28944(11) 0.60104(12)
H2_22 H 0.8707 0.2821 0.6095
C10_22 C 0.78189(9) 0.34134(13) 0.62268(12)
H3_22 H 0.7685 0.3417 0.6092
H4_22 H 0.7840 0.3236 0.6291
H5_22 H 0.7767 0.3527 0.6371
C11_22 C 0.81062(15) 0.37215(8) 0.59136(11)
H6_22 H 0.8293 0.3735 0.5883
H7_22 H 0.8018 0.3678 0.5751
H8_22 H 0.8041 0.3888 0.5978
C12_22 C 0.84121(13) 0.27992(9) 0.57387(12)
H9_22 H 0.8482 0.2658 0.5643
C13_22 C 0.78725(14) 0.46374(10) 0.69247(17)
C14_22 C 0.79329(10) 0.43604(9) 0.68343(12)
C15_22 C 0.81533(10) 0.42845(7) 0.68921(11)
H10_22 H 0.8278 0.4402 0.6961
C16_22 C 0.82251(8) 0.39905(7) 0.68508(8)
C17_22 C 0.84996(9) 0.38761(9) 0.69486(10)
C18_22 C 0.85030(10) 0.36795(8) 0.67179(10)
C19_22 C 0.83157(11) 0.36704(8) 0.65143(9)
C20_22 C 0.81481(8) 0.39057(8) 0.66146(8)
C21_22 C 0.78944(11) 0.39896(12) 0.64396(11)
H11_22 H 0.7821 0.3905 0.6293
C22_22 C 0.84134(13) 0.37732(12) 0.71811(9)
H12_22 H 0.8417 0.3908 0.7315
H13_22 H 0.8236 0.3709 0.7160
H14_22 H 0.8527 0.3629 0.7233
C23_22 C 0.87215(8) 0.40864(11) 0.68938(15)
H15_22 H 0.8735 0.4117 0.6707
H16_22 H 0.8678 0.4249 0.6982
H17_22 H 0.8888 0.4022 0.6959
C24_22 C 0.77992(9) 0.42613(12) 0.65879(13)
H18_22 H 0.7658 0.4357 0.6518
C25_22 C 0.96374(10) 0.30753(17) 0.71275(14)
C26_22 C 0.93604(9) 0.31657(12) 0.70671(10)
C27_22 C 0.92845(7) 0.31079(11) 0.68467(10)
H19_22 H 0.9402 0.3039 0.6722
C28_22 C 0.89905(7) 0.31492(8) 0.67749(8)
C29_22 C 0.88761(9) 0.30514(10) 0.65004(9)
C30_22 C 0.86795(8) 0.32821(10) 0.64970(10)
C31_22 C 0.86704(8) 0.34857(9) 0.66843(11)
C32_22 C 0.89057(8) 0.33854(8) 0.68519(8)
C33_22 C 0.89896(12) 0.35604(11) 0.71056(11)
H20_22 H 0.8905 0.3707 0.7179
C34_22 C 0.87732(12) 0.28189(9) 0.65866(13)
H21_22 H 0.8908 0.2685 0.6583
H22_22 H 0.8709 0.2840 0.6764
H23_22 H 0.8629 0.2767 0.6473
C35_22 C 0.90864(11) 0.31062(15) 0.62785(8)
H24_22 H 0.9117 0.3293 0.6265
H25_22 H 0.9249 0.3018 0.6322
H26_22 H 0.9022 0.3041 0.6112
C36_22 C 0.92613(12) 0.34121(13) 0.72008(9)
H27_22 H 0.9357 0.3482 0.7342
C37_22 C 0.96374(10) 0.21275(14) 0.69247(17)
C38_22 C 0.93604(9) 0.20671(10) 0.68343(12)
C39_22 C 0.92845(7) 0.18467(10) 0.68921(11)
H28_22 H 0.9402 0.1722 0.6961
C40_22 C 0.89905(7) 0.17749(8) 0.68508(8)
C41_22 C 0.88761(9) 0.15004(9) 0.69486(10)
C42_22 C 0.86795(8) 0.14970(10) 0.67179(10)
C43_22 C 0.86704(8) 0.16843(11) 0.65143(9)
C44_22 C 0.89057(8) 0.18519(8) 0.66146(8)
C45_22 C 0.89896(12) 0.21056(11) 0.64396(11)
H29_22 H 0.8905 0.2179 0.6293
C46_22 C 0.87732(12) 0.15866(13) 0.71811(9)
H30_22 H 0.8908 0.1583 0.7315
H31_22 H 0.8709 0.1764 0.7160
H32_22 H 0.8629 0.1473 0.7233
C47_22 C 0.90864(11) 0.12785(8) 0.68938(15)
H33_22 H 0.9117 0.1265 0.6707
H34_22 H 0.9249 0.1322 0.6982
H35_22 H 0.9022 0.1112 0.6959
C48_22 C 0.92613(12) 0.22008(9) 0.65879(13)
H36_22 H 0.9357 0.2342 0.6518
C49_22 C 0.80753(17) 0.03626(10) 0.71275(14)
C50_22 C 0.81657(12) 0.06396(9) 0.70671(10)
C51_22 C 0.81079(11) 0.07155(7) 0.68467(10)
H37_22 H 0.8039 0.0598 0.6722
C52_22 C 0.81492(8) 0.10095(7) 0.67749(8)
C53_22 C 0.80514(10) 0.11239(9) 0.65004(9)
C54_22 C 0.82821(10) 0.13205(8) 0.64970(10)
C55_22 C 0.84857(9) 0.13296(8) 0.66843(11)
C56_22 C 0.83854(8) 0.10943(8) 0.68519(8)
C57_22 C 0.85604(11) 0.10104(12) 0.71056(11)
H38_22 H 0.8707 0.1095 0.7179
C58_22 C 0.78189(9) 0.12268(12) 0.65866(13)
H39_22 H 0.7685 0.1092 0.6583
H40_22 H 0.7840 0.1291 0.6764
H41_22 H 0.7767 0.1371 0.6473
C59_22 C 0.81062(15) 0.09136(11) 0.62785(8)
H42_22 H 0.8293 0.0883 0.6265
H43_22 H 0.8018 0.0751 0.6322
H44_22 H 0.8041 0.0978 0.6112
C60_22 C 0.84121(13) 0.07387(12) 0.72008(9)
H45_22 H 0.8482 0.0643 0.7342
C61_22 C 0.78725(14) 0.19247(17) 0.53626(10)
C62_22 C 0.79329(10) 0.18343(12) 0.56396(9)
C63_22 C 0.81533(10) 0.18921(11) 0.57155(7)
H46_22 H 0.8278 0.1961 0.5598
C64_22 C 0.82251(8) 0.18508(8) 0.60095(7)
C65_22 C 0.84996(9) 0.19486(10) 0.61239(9)
C66_22 C 0.85030(10) 0.17179(10) 0.63205(8)
C67_22 C 0.83157(11) 0.15143(9) 0.63296(8)
C68_22 C 0.81481(8) 0.16146(8) 0.60943(8)
C69_22 C 0.78944(11) 0.14396(11) 0.60104(12)
H47_22 H 0.7821 0.1293 0.6095
C70_22 C 0.84134(13) 0.21811(9) 0.62268(12)
H48_22 H 0.8417 0.2315 0.6092
H49_22 H 0.8236 0.2160 0.6291
H50_22 H 0.8527 0.2233 0.6371
C71_22 C 0.87215(8) 0.18938(15) 0.59136(11)
H51_22 H 0.8735 0.1707 0.5883
H52_22 H 0.8678 0.1982 0.5751
H53_22 H 0.8888 0.1959 0.5978
C72_22 C 0.77992(9) 0.15879(13) 0.57387(12)
H54_22 H 0.7658 0.1518 0.5643
C1_23 C 0.19247(17) 0.28725(14) 0.46374(10)
C2_23 C 0.18343(12) 0.29329(10) 0.43604(9)
C3_23 C 0.18921(11) 0.31533(10) 0.42845(7)
H1_23 H 0.1961 0.3278 0.4402
C4_23 C 0.18508(8) 0.32251(8) 0.39905(7)
C5_23 C 0.19486(10) 0.34996(9) 0.38761(9)
C6_23 C 0.17179(10) 0.35030(10) 0.36795(8)
C7_23 C 0.15143(9) 0.33157(11) 0.36704(8)
C8_23 C 0.16146(8) 0.31481(8) 0.39057(8)
C9_23 C 0.14396(11) 0.28944(11) 0.39896(12)
H2_23 H 0.1293 0.2821 0.3905
C10_23 C 0.21811(9) 0.34134(13) 0.37732(12)
H3_23 H 0.2315 0.3417 0.3908
H4_23 H 0.2160 0.3236 0.3709
H5_23 H 0.2233 0.3527 0.3629
C11_23 C 0.18938(15) 0.37215(8) 0.40864(11)
H6_23 H 0.1707 0.3735 0.4117
H7_23 H 0.1982 0.3678 0.4249
H8_23 H 0.1959 0.3888 0.4022
C12_23 C 0.15879(13) 0.27992(9) 0.42613(12)
H9_23 H 0.1518 0.2658 0.4357
C13_23 C 0.21275(14) 0.46374(10) 0.30753(17)
C14_23 C 0.20671(10) 0.43604(9) 0.31657(12)
C15_23 C 0.18467(10) 0.42845(7) 0.31079(11)
H10_23 H 0.1722 0.4402 0.3039
C16_23 C 0.17749(8) 0.39905(7) 0.31492(8)
C17_23 C 0.15004(9) 0.38761(9) 0.30514(10)
C18_23 C 0.14970(10) 0.36795(8) 0.32821(10)
C19_23 C 0.16843(11) 0.36704(8) 0.34857(9)
C20_23 C 0.18519(8) 0.39057(8) 0.33854(8)
C21_23 C 0.21056(11) 0.39896(12) 0.35604(11)
H11_23 H 0.2179 0.3905 0.3707
C22_23 C 0.15866(13) 0.37732(12) 0.28189(9)
H12_23 H 0.1583 0.3908 0.2685
H13_23 H 0.1764 0.3709 0.2840
H14_23 H 0.1473 0.3629 0.2767
C23_23 C 0.12785(8) 0.40864(11) 0.31062(15)
H15_23 H 0.1265 0.4117 0.3293
H16_23 H 0.1322 0.4249 0.3018
H17_23 H 0.1112 0.4022 0.3041
C24_23 C 0.22008(9) 0.42613(12) 0.34121(13)
H18_23 H 0.2342 0.4357 0.3482
C25_23 C 0.03626(10) 0.30753(17) 0.28725(14)
C26_23 C 0.06396(9) 0.31657(12) 0.29329(10)
C27_23 C 0.07155(7) 0.31079(11) 0.31533(10)
H19_23 H 0.0598 0.3039 0.3278
C28_23 C 0.10095(7) 0.31492(8) 0.32251(8)
C29_23 C 0.11239(9) 0.30514(10) 0.34996(9)
C30_23 C 0.13205(8) 0.32821(10) 0.35030(10)
C31_23 C 0.13296(8) 0.34857(9) 0.33157(11)
C32_23 C 0.10943(8) 0.33854(8) 0.31481(8)
C33_23 C 0.10104(12) 0.35604(11) 0.28944(11)
H20_23 H 0.1095 0.3707 0.2821
C34_23 C 0.12268(12) 0.28189(9) 0.34134(13)
H21_23 H 0.1092 0.2685 0.3417
H22_23 H 0.1291 0.2840 0.3236
H23_23 H 0.1371 0.2767 0.3527
C35_23 C 0.09136(11) 0.31062(15) 0.37215(8)
H24_23 H 0.0883 0.3293 0.3735
H25_23 H 0.0751 0.3018 0.3678
H26_23 H 0.0978 0.3041 0.3888
C36_23 C 0.07387(12) 0.34121(13) 0.27992(9)
H27_23 H 0.0643 0.3482 0.2658
C37_23 C 0.03626(10) 0.21275(14) 0.30753(17)
C38_23 C 0.06396(9) 0.20671(10) 0.31657(12)
C39_23 C 0.07155(7) 0.18467(10) 0.31079(11)
H28_23 H 0.0598 0.1722 0.3039
C40_23 C 0.10095(7) 0.17749(8) 0.31492(8)
C41_23 C 0.11239(9) 0.15004(9) 0.30514(10)
C42_23 C 0.13205(8) 0.14970(10) 0.32821(10)
C43_23 C 0.13296(8) 0.16843(11) 0.34857(9)
C44_23 C 0.10943(8) 0.18519(8) 0.33854(8)
C45_23 C 0.10104(12) 0.21056(11) 0.35604(11)
H29_23 H 0.1095 0.2179 0.3707
C46_23 C 0.12268(12) 0.15866(13) 0.28189(9)
H30_23 H 0.1092 0.1583 0.2685
H31_23 H 0.1291 0.1764 0.2840
H32_23 H 0.1371 0.1473 0.2767
C47_23 C 0.09136(11) 0.12785(8) 0.31062(15)
H33_23 H 0.0883 0.1265 0.3293
H34_23 H 0.0751 0.1322 0.3018
H35_23 H 0.0978 0.1112 0.3041
C48_23 C 0.07387(12) 0.22008(9) 0.34121(13)
H36_23 H 0.0643 0.2342 0.3482
C49_23 C 0.19247(17) 0.03626(10) 0.28725(14)
C50_23 C 0.18343(12) 0.06396(9) 0.29329(10)
C51_23 C 0.18921(11) 0.07155(7) 0.31533(10)
H37_23 H 0.1961 0.0598 0.3278
C52_23 C 0.18508(8) 0.10095(7) 0.32251(8)
C53_23 C 0.19486(10) 0.11239(9) 0.34996(9)
C54_23 C 0.17179(10) 0.13205(8) 0.35030(10)
C55_23 C 0.15143(9) 0.13296(8) 0.33157(11)
C56_23 C 0.16146(8) 0.10943(8) 0.31481(8)
C57_23 C 0.14396(11) 0.10104(12) 0.28944(11)
H38_23 H 0.1293 0.1095 0.2821
C58_23 C 0.21811(9) 0.12268(12) 0.34134(13)
H39_23 H 0.2315 0.1092 0.3417
H40_23 H 0.2160 0.1291 0.3236
H41_23 H 0.2233 0.1371 0.3527
C59_23 C 0.18938(15) 0.09136(11) 0.37215(8)
H42_23 H 0.1707 0.0883 0.3735
H43_23 H 0.1982 0.0751 0.3678
H44_23 H 0.1959 0.0978 0.3888
C60_23 C 0.15879(13) 0.07387(12) 0.27992(9)
H45_23 H 0.1518 0.0643 0.2658
C61_23 C 0.21275(14) 0.19247(17) 0.46374(10)
C62_23 C 0.20671(10) 0.18343(12) 0.43604(9)
C63_23 C 0.18467(10) 0.18921(11) 0.42845(7)
H46_23 H 0.1722 0.1961 0.4402
C64_23 C 0.17749(8) 0.18508(8) 0.39905(7)
C65_23 C 0.15004(9) 0.19486(10) 0.38761(9)
C66_23 C 0.14970(10) 0.17179(10) 0.36795(8)
C67_23 C 0.16843(11) 0.15143(9) 0.36704(8)
C68_23 C 0.18519(8) 0.16146(8) 0.39057(8)
C69_23 C 0.21056(11) 0.14396(11) 0.39896(12)
H47_23 H 0.2179 0.1293 0.3905
C70_23 C 0.15866(13) 0.21811(9) 0.37732(12)
H48_23 H 0.1583 0.2315 0.3908
H49_23 H 0.1764 0.2160 0.3709
H50_23 H 0.1473 0.2233 0.3629
C71_23 C 0.12785(8) 0.18938(15) 0.40864(11)
H51_23 H 0.1265 0.1707 0.4117
H52_23 H 0.1322 0.1982 0.4249
H53_23 H 0.1112 0.1959 0.4022
C72_23 C 0.22008(9) 0.15879(13) 0.42613(12)
H54_23 H 0.2342 0.1518 0.4357
C1_24 C 0.19247(17) 0.71275(14) 0.53626(10)
C2_24 C 0.18343(12) 0.70671(10) 0.56396(9)
C3_24 C 0.18921(11) 0.68467(10) 0.57155(7)
H1_24 H 0.1961 0.6722 0.5598
C4_24 C 0.18508(8) 0.67749(8) 0.60095(7)
C5_24 C 0.19486(10) 0.65004(9) 0.61239(9)
C6_24 C 0.17179(10) 0.64970(10) 0.63205(8)
C7_24 C 0.15143(9) 0.66843(11) 0.63296(8)
C8_24 C 0.16146(8) 0.68519(8) 0.60943(8)
C9_24 C 0.14396(11) 0.71056(11) 0.60104(12)
H2_24 H 0.1293 0.7179 0.6095
C10_24 C 0.21811(9) 0.65866(13) 0.62268(12)
H3_24 H 0.2315 0.6583 0.6092
H4_24 H 0.2160 0.6764 0.6291
H5_24 H 0.2233 0.6473 0.6371
C11_24 C 0.18938(15) 0.62785(8) 0.59136(11)
H6_24 H 0.1707 0.6265 0.5883
H7_24 H 0.1982 0.6322 0.5751
H8_24 H 0.1959 0.6112 0.5978
C12_24 C 0.15879(13) 0.72008(9) 0.57387(12)
H9_24 H 0.1518 0.7342 0.5643
C13_24 C 0.21275(14) 0.53626(10) 0.69247(17)
C14_24 C 0.20671(10) 0.56396(9) 0.68343(12)
C15_24 C 0.18467(10) 0.57155(7) 0.68921(11)
H10_24 H 0.1722 0.5598 0.6961
C16_24 C 0.17749(8) 0.60095(7) 0.68508(8)
C17_24 C 0.15004(9) 0.61239(9) 0.69486(10)
C18_24 C 0.14970(10) 0.63205(8) 0.67179(10)
C19_24 C 0.16843(11) 0.63296(8) 0.65143(9)
C20_24 C 0.18519(8) 0.60943(8) 0.66146(8)
C21_24 C 0.21056(11) 0.60104(12) 0.64396(11)
H11_24 H 0.2179 0.6095 0.6293
C22_24 C 0.15866(13) 0.62268(12) 0.71811(9)
H12_24 H 0.1583 0.6092 0.7315
H13_24 H 0.1764 0.6291 0.7160
H14_24 H 0.1473 0.6371 0.7233
C23_24 C 0.12785(8) 0.59136(11) 0.68938(15)
H15_24 H 0.1265 0.5883 0.6707
H16_24 H 0.1322 0.5751 0.6982
H17_24 H 0.1112 0.5978 0.6959
C24_24 C 0.22008(9) 0.57387(12) 0.65879(13)
H18_24 H 0.2342 0.5643 0.6518
C25_24 C 0.03626(10) 0.69247(17) 0.71275(14)
C26_24 C 0.06396(9) 0.68343(12) 0.70671(10)
C27_24 C 0.07155(7) 0.68921(11) 0.68467(10)
H19_24 H 0.0598 0.6961 0.6722
C28_24 C 0.10095(7) 0.68508(8) 0.67749(8)
C29_24 C 0.11239(9) 0.69486(10) 0.65004(9)
C30_24 C 0.13205(8) 0.67179(10) 0.64970(10)
C31_24 C 0.13296(8) 0.65143(9) 0.66843(11)
C32_24 C 0.10943(8) 0.66146(8) 0.68519(8)
C33_24 C 0.10104(12) 0.64396(11) 0.71056(11)
H20_24 H 0.1095 0.6293 0.7179
C34_24 C 0.12268(12) 0.71811(9) 0.65866(13)
H21_24 H 0.1092 0.7315 0.6583
H22_24 H 0.1291 0.7160 0.6764
H23_24 H 0.1371 0.7233 0.6473
C35_24 C 0.09136(11) 0.68938(15) 0.62785(8)
H24_24 H 0.0883 0.6707 0.6265
H25_24 H 0.0751 0.6982 0.6322
H26_24 H 0.0978 0.6959 0.6112
C36_24 C 0.07387(12) 0.65879(13) 0.72008(9)
H27_24 H 0.0643 0.6518 0.7342
C37_24 C 0.03626(10) 0.78725(14) 0.69247(17)
C38_24 C 0.06396(9) 0.79329(10) 0.68343(12)
C39_24 C 0.07155(7) 0.81533(10) 0.68921(11)
H28_24 H 0.0598 0.8278 0.6961
C40_24 C 0.10095(7) 0.82251(8) 0.68508(8)
C41_24 C 0.11239(9) 0.84996(9) 0.69486(10)
C42_24 C 0.13205(8) 0.85030(10) 0.67179(10)
C43_24 C 0.13296(8) 0.83157(11) 0.65143(9)
C44_24 C 0.10943(8) 0.81481(8) 0.66146(8)
C45_24 C 0.10104(12) 0.78944(11) 0.64396(11)
H29_24 H 0.1095 0.7821 0.6293
C46_24 C 0.12268(12) 0.84134(13) 0.71811(9)
H30_24 H 0.1092 0.8417 0.7315
H31_24 H 0.1291 0.8236 0.7160
H32_24 H 0.1371 0.8527 0.7233
C47_24 C 0.09136(11) 0.87215(8) 0.68938(15)
H33_24 H 0.0883 0.8735 0.6707
H34_24 H 0.0751 0.8678 0.6982
H35_24 H 0.0978 0.8888 0.6959
C48_24 C 0.07387(12) 0.77992(9) 0.65879(13)
H36_24 H 0.0643 0.7658 0.6518
C49_24 C 0.19247(17) 0.96374(10) 0.71275(14)
C50_24 C 0.18343(12) 0.93604(9) 0.70671(10)
C51_24 C 0.18921(11) 0.92845(7) 0.68467(10)
H37_24 H 0.1961 0.9402 0.6722
C52_24 C 0.18508(8) 0.89905(7) 0.67749(8)
C53_24 C 0.19486(10) 0.88761(9) 0.65004(9)
C54_24 C 0.17179(10) 0.86795(8) 0.64970(10)
C55_24 C 0.15143(9) 0.86704(8) 0.66843(11)
C56_24 C 0.16146(8) 0.89057(8) 0.68519(8)
C57_24 C 0.14396(11) 0.89896(12) 0.71056(11)
H38_24 H 0.1293 0.8905 0.7179
C58_24 C 0.21811(9) 0.87732(12) 0.65866(13)
H39_24 H 0.2315 0.8908 0.6583
H40_24 H 0.2160 0.8709 0.6764
H41_24 H 0.2233 0.8629 0.6473
C59_24 C 0.18938(15) 0.90864(11) 0.62785(8)
H42_24 H 0.1707 0.9117 0.6265
H43_24 H 0.1982 0.9249 0.6322
H44_24 H 0.1959 0.9022 0.6112
C60_24 C 0.15879(13) 0.92613(12) 0.72008(9)
H45_24 H 0.1518 0.9357 0.7342
C61_24 C 0.21275(14) 0.80753(17) 0.53626(10)
C62_24 C 0.20671(10) 0.81657(12) 0.56396(9)
C63_24 C 0.18467(10) 0.81079(11) 0.57155(7)
H46_24 H 0.1722 0.8039 0.5598
C64_24 C 0.17749(8) 0.81492(8) 0.60095(7)
C65_24 C 0.15004(9) 0.80514(10) 0.61239(9)
C66_24 C 0.14970(10) 0.82821(10) 0.63205(8)
C67_24 C 0.16843(11) 0.84857(9) 0.63296(8)
C68_24 C 0.18519(8) 0.83854(8) 0.60943(8)
C69_24 C 0.21056(11) 0.85604(11) 0.60104(12)
H47_24 H 0.2179 0.8707 0.6095
C70_24 C 0.15866(13) 0.78189(9) 0.62268(12)
H48_24 H 0.1583 0.7685 0.6092
H49_24 H 0.1764 0.7840 0.6291
H50_24 H 0.1473 0.7767 0.6371
C71_24 C 0.12785(8) 0.81062(15) 0.59136(11)
H51_24 H 0.1265 0.8293 0.5883
H52_24 H 0.1322 0.8018 0.5751
H53_24 H 0.1112 0.8041 0.5978
C72_24 C 0.22008(9) 0.84121(13) 0.57387(12)
H54_24 H 0.2342 0.8482 0.5643
C1_25 C 0.46374(10) 0.80753(17) 0.71275(14)
C2_25 C 0.43604(9) 0.81657(12) 0.70671(10)
C3_25 C 0.42845(7) 0.81079(11) 0.68467(10)
H1_25 H 0.4402 0.8039 0.6722
C4_25 C 0.39905(7) 0.81492(8) 0.67749(8)
C5_25 C 0.38761(9) 0.80514(10) 0.65004(9)
C6_25 C 0.36795(8) 0.82821(10) 0.64970(10)
C7_25 C 0.36704(8) 0.84857(9) 0.66843(11)
C8_25 C 0.39057(8) 0.83854(8) 0.68519(8)
C9_25 C 0.39896(12) 0.85604(11) 0.71056(11)
H2_25 H 0.3905 0.8707 0.7179
C10_25 C 0.37732(12) 0.78189(9) 0.65866(13)
H3_25 H 0.3908 0.7685 0.6583
H4_25 H 0.3709 0.7840 0.6764
H5_25 H 0.3629 0.7767 0.6473
C11_25 C 0.40864(11) 0.81062(15) 0.62785(8)
H6_25 H 0.4117 0.8293 0.6265
H7_25 H 0.4249 0.8018 0.6322
H8_25 H 0.4022 0.8041 0.6112
C12_25 C 0.42613(12) 0.84121(13) 0.72008(9)
H9_25 H 0.4357 0.8482 0.7342
C13_25 C 0.30753(17) 0.78725(14) 0.53626(10)
C14_25 C 0.31657(12) 0.79329(10) 0.56396(9)
C15_25 C 0.31079(11) 0.81533(10) 0.57155(7)
H10_25 H 0.3039 0.8278 0.5598
C16_25 C 0.31492(8) 0.82251(8) 0.60095(7)
C17_25 C 0.30514(10) 0.84996(9) 0.61239(9)
C18_25 C 0.32821(10) 0.85030(10) 0.63205(8)
C19_25 C 0.34857(9) 0.83157(11) 0.63296(8)
C20_25 C 0.33854(8) 0.81481(8) 0.60943(8)
C21_25 C 0.35604(11) 0.78944(11) 0.60104(12)
H11_25 H 0.3707 0.7821 0.6095
C22_25 C 0.28189(9) 0.84134(13) 0.62268(12)
H12_25 H 0.2685 0.8417 0.6092
H13_25 H 0.2840 0.8236 0.6291
H14_25 H 0.2767 0.8527 0.6371
C23_25 C 0.31062(15) 0.87215(8) 0.59136(11)
H15_25 H 0.3293 0.8735 0.5883
H16_25 H 0.3018 0.8678 0.5751
H17_25 H 0.3041 0.8888 0.5978
C24_25 C 0.34121(13) 0.77992(9) 0.57387(12)
H18_25 H 0.3482 0.7658 0.5643
C25_25 C 0.28725(14) 0.96374(10) 0.69247(17)
C26_25 C 0.29329(10) 0.93604(9) 0.68343(12)
C27_25 C 0.31533(10) 0.92845(7) 0.68921(11)
H19_25 H 0.3278 0.9402 0.6961
C28_25 C 0.32251(8) 0.89905(7) 0.68508(8)
C29_25 C 0.34996(9) 0.88761(9) 0.69486(10)
C30_25 C 0.35030(10) 0.86795(8) 0.67179(10)
C31_25 C 0.33157(11) 0.86704(8) 0.65143(9)
C32_25 C 0.31481(8) 0.89057(8) 0.66146(8)
C33_25 C 0.28944(11) 0.89896(12) 0.64396(11)
H20_25 H 0.2821 0.8905 0.6293
C34_25 C 0.34134(13) 0.87732(12) 0.71811(9)
H21_25 H 0.3417 0.8908 0.7315
H22_25 H 0.3236 0.8709 0.7160
H23_25 H 0.3527 0.8629 0.7233
C35_25 C 0.37215(8) 0.90864(11) 0.68938(15)
H24_25 H 0.3735 0.9117 0.6707
H25_25 H 0.3678 0.9249 0.6982
H26_25 H 0.3888 0.9022 0.6959
C36_25 C 0.27992(9) 0.92613(12) 0.65879(13)
H27_25 H 0.2658 0.9357 0.6518
C37_25 C 0.30753(17) 0.96374(10) 0.78725(14)
C38_25 C 0.31657(12) 0.93604(9) 0.79329(10)
C39_25 C 0.31079(11) 0.92845(7) 0.81533(10)
H28_25 H 0.3039 0.9402 0.8278
C40_25 C 0.31492(8) 0.89905(7) 0.82251(8)
C41_25 C 0.30514(10) 0.88761(9) 0.84996(9)
C42_25 C 0.32821(10) 0.86795(8) 0.85030(10)
C43_25 C 0.34857(9) 0.86704(8) 0.83157(11)
C44_25 C 0.33854(8) 0.89057(8) 0.81481(8)
C45_25 C 0.35604(11) 0.89896(12) 0.78944(11)
H29_25 H 0.3707 0.8905 0.7821
C46_25 C 0.28189(9) 0.87732(12) 0.84134(13)
H30_25 H 0.2685 0.8908 0.8417
H31_25 H 0.2840 0.8709 0.8236
H32_25 H 0.2767 0.8629 0.8527
C47_25 C 0.31062(15) 0.90864(11) 0.87215(8)
H33_25 H 0.3293 0.9117 0.8735
H34_25 H 0.3018 0.9249 0.8678
H35_25 H 0.3041 0.9022 0.8888
C48_25 C 0.34121(13) 0.92613(12) 0.77992(9)
H36_25 H 0.3482 0.9357 0.7658
C49_25 C 0.28725(14) 0.80753(17) 0.96374(10)
C50_25 C 0.29329(10) 0.81657(12) 0.93604(9)
C51_25 C 0.31533(10) 0.81079(11) 0.92845(7)
H37_25 H 0.3278 0.8039 0.9402
C52_25 C 0.32251(8) 0.81492(8) 0.89905(7)
C53_25 C 0.34996(9) 0.80514(10) 0.88761(9)
C54_25 C 0.35030(10) 0.82821(10) 0.86795(8)
C55_25 C 0.33157(11) 0.84857(9) 0.86704(8)
C56_25 C 0.31481(8) 0.83854(8) 0.89057(8)
C57_25 C 0.28944(11) 0.85604(11) 0.89896(12)
H38_25 H 0.2821 0.8707 0.8905
C58_25 C 0.34134(13) 0.78189(9) 0.87732(12)
H39_25 H 0.3417 0.7685 0.8908
H40_25 H 0.3236 0.7840 0.8709
H41_25 H 0.3527 0.7767 0.8629
C59_25 C 0.37215(8) 0.81062(15) 0.90864(11)
H42_25 H 0.3735 0.8293 0.9117
H43_25 H 0.3678 0.8018 0.9249
H44_25 H 0.3888 0.8041 0.9022
C60_25 C 0.27992(9) 0.84121(13) 0.92613(12)
H45_25 H 0.2658 0.8482 0.9357
C61_25 C 0.46374(10) 0.78725(14) 0.80753(17)
C62_25 C 0.43604(9) 0.79329(10) 0.81657(12)
C63_25 C 0.42845(7) 0.81533(10) 0.81079(11)
H46_25 H 0.4402 0.8278 0.8039
C64_25 C 0.39905(7) 0.82251(8) 0.81492(8)
C65_25 C 0.38761(9) 0.84996(9) 0.80514(10)
C66_25 C 0.36795(8) 0.85030(10) 0.82821(10)
C67_25 C 0.36704(8) 0.83157(11) 0.84857(9)
C68_25 C 0.39057(8) 0.81481(8) 0.83854(8)
C69_25 C 0.39896(12) 0.78944(11) 0.85604(11)
H47_25 H 0.3905 0.7821 0.8707
C70_25 C 0.37732(12) 0.84134(13) 0.78189(9)
H48_25 H 0.3908 0.8417 0.7685
H49_25 H 0.3709 0.8236 0.7840
H50_25 H 0.3629 0.8527 0.7767
C71_25 C 0.40864(11) 0.87215(8) 0.81062(15)
H51_25 H 0.4117 0.8735 0.8293
H52_25 H 0.4249 0.8678 0.8018
H53_25 H 0.4022 0.8888 0.8041
C72_25 C 0.42613(12) 0.77992(9) 0.84121(13)
H54_25 H 0.4357 0.7658 0.8482
C1_26 C 0.53626(10) 0.80753(17) 0.28725(14)
C2_26 C 0.56396(9) 0.81657(12) 0.29329(10)
C3_26 C 0.57155(7) 0.81079(11) 0.31533(10)
H1_26 H 0.5598 0.8039 0.3278
C4_26 C 0.60095(7) 0.81492(8) 0.32251(8)
C5_26 C 0.61239(9) 0.80514(10) 0.34996(9)
C6_26 C 0.63205(8) 0.82821(10) 0.35030(10)
C7_26 C 0.63296(8) 0.84857(9) 0.33157(11)
C8_26 C 0.60943(8) 0.83854(8) 0.31481(8)
C9_26 C 0.60104(12) 0.85604(11) 0.28944(11)
H2_26 H 0.6095 0.8707 0.2821
C10_26 C 0.62268(12) 0.78189(9) 0.34134(13)
H3_26 H 0.6092 0.7685 0.3417
H4_26 H 0.6291 0.7840 0.3236
H5_26 H 0.6371 0.7767 0.3527
C11_26 C 0.59136(11) 0.81062(15) 0.37215(8)
H6_26 H 0.5883 0.8293 0.3735
H7_26 H 0.5751 0.8018 0.3678
H8_26 H 0.5978 0.8041 0.3888
C12_26 C 0.57387(12) 0.84121(13) 0.27992(9)
H9_26 H 0.5643 0.8482 0.2658
C13_26 C 0.69247(17) 0.78725(14) 0.46374(10)
C14_26 C 0.68343(12) 0.79329(10) 0.43604(9)
C15_26 C 0.68921(11) 0.81533(10) 0.42845(7)
H10_26 H 0.6961 0.8278 0.4402
C16_26 C 0.68508(8) 0.82251(8) 0.39905(7)
C17_26 C 0.69486(10) 0.84996(9) 0.38761(9)
C18_26 C 0.67179(10) 0.85030(10) 0.36795(8)
C19_26 C 0.65143(9) 0.83157(11) 0.36704(8)
C20_26 C 0.66146(8) 0.81481(8) 0.39057(8)
C21_26 C 0.64396(11) 0.78944(11) 0.39896(12)
H11_26 H 0.6293 0.7821 0.3905
C22_26 C 0.71811(9) 0.84134(13) 0.37732(12)
H12_26 H 0.7315 0.8417 0.3908
H13_26 H 0.7160 0.8236 0.3709
H14_26 H 0.7233 0.8527 0.3629
C23_26 C 0.68938(15) 0.87215(8) 0.40864(11)
H15_26 H 0.6707 0.8735 0.4117
H16_26 H 0.6982 0.8678 0.4249
H17_26 H 0.6959 0.8888 0.4022
C24_26 C 0.65879(13) 0.77992(9) 0.42613(12)
H18_26 H 0.6518 0.7658 0.4357
C25_26 C 0.71275(14) 0.96374(10) 0.30753(17)
C26_26 C 0.70671(10) 0.93604(9) 0.31657(12)
C27_26 C 0.68467(10) 0.92845(7) 0.31079(11)
H19_26 H 0.6722 0.9402 0.3039
C28_26 C 0.67749(8) 0.89905(7) 0.31492(8)
C29_26 C 0.65004(9) 0.88761(9) 0.30514(10)
C30_26 C 0.64970(10) 0.86795(8) 0.32821(10)
C31_26 C 0.66843(11) 0.86704(8) 0.34857(9)
C32_26 C 0.68519(8) 0.89057(8) 0.33854(8)
C33_26 C 0.71056(11) 0.89896(12) 0.35604(11)
H20_26 H 0.7179 0.8905 0.3707
C34_26 C 0.65866(13) 0.87732(12) 0.28189(9)
H21_26 H 0.6583 0.8908 0.2685
H22_26 H 0.6764 0.8709 0.2840
H23_26 H 0.6473 0.8629 0.2767
C35_26 C 0.62785(8) 0.90864(11) 0.31062(15)
H24_26 H 0.6265 0.9117 0.3293
H25_26 H 0.6322 0.9249 0.3018
H26_26 H 0.6112 0.9022 0.3041
C36_26 C 0.72008(9) 0.92613(12) 0.34121(13)
H27_26 H 0.7342 0.9357 0.3482
C37_26 C 0.69247(17) 0.96374(10) 0.21275(14)
C38_26 C 0.68343(12) 0.93604(9) 0.20671(10)
C39_26 C 0.68921(11) 0.92845(7) 0.18467(10)
H28_26 H 0.6961 0.9402 0.1722
C40_26 C 0.68508(8) 0.89905(7) 0.17749(8)
C41_26 C 0.69486(10) 0.88761(9) 0.15004(9)
C42_26 C 0.67179(10) 0.86795(8) 0.14970(10)
C43_26 C 0.65143(9) 0.86704(8) 0.16843(11)
C44_26 C 0.66146(8) 0.89057(8) 0.18519(8)
C45_26 C 0.64396(11) 0.89896(12) 0.21056(11)
H29_26 H 0.6293 0.8905 0.2179
C46_26 C 0.71811(9) 0.87732(12) 0.15866(13)
H30_26 H 0.7315 0.8908 0.1583
H31_26 H 0.7160 0.8709 0.1764
H32_26 H 0.7233 0.8629 0.1473
C47_26 C 0.68938(15) 0.90864(11) 0.12785(8)
H33_26 H 0.6707 0.9117 0.1265
H34_26 H 0.6982 0.9249 0.1322
H35_26 H 0.6959 0.9022 0.1112
C48_26 C 0.65879(13) 0.92613(12) 0.22008(9)
H36_26 H 0.6518 0.9357 0.2342
C49_26 C 0.71275(14) 0.80753(17) 0.03626(10)
C50_26 C 0.70671(10) 0.81657(12) 0.06396(9)
C51_26 C 0.68467(10) 0.81079(11) 0.07155(7)
H37_26 H 0.6722 0.8039 0.0598
C52_26 C 0.67749(8) 0.81492(8) 0.10095(7)
C53_26 C 0.65004(9) 0.80514(10) 0.11239(9)
C54_26 C 0.64970(10) 0.82821(10) 0.13205(8)
C55_26 C 0.66843(11) 0.84857(9) 0.13296(8)
C56_26 C 0.68519(8) 0.83854(8) 0.10943(8)
C57_26 C 0.71056(11) 0.85604(11) 0.10104(12)
H38_26 H 0.7179 0.8707 0.1095
C58_26 C 0.65866(13) 0.78189(9) 0.12268(12)
H39_26 H 0.6583 0.7685 0.1092
H40_26 H 0.6764 0.7840 0.1291
H41_26 H 0.6473 0.7767 0.1371
C59_26 C 0.62785(8) 0.81062(15) 0.09136(11)
H42_26 H 0.6265 0.8293 0.0883
H43_26 H 0.6322 0.8018 0.0751
H44_26 H 0.6112 0.8041 0.0978
C60_26 C 0.72008(9) 0.84121(13) 0.07387(12)
H45_26 H 0.7342 0.8482 0.0643
C61_26 C 0.53626(10) 0.78725(14) 0.19247(17)
C62_26 C 0.56396(9) 0.79329(10) 0.18343(12)
C63_26 C 0.57155(7) 0.81533(10) 0.18921(11)
H46_26 H 0.5598 0.8278 0.1961
C64_26 C 0.60095(7) 0.82251(8) 0.18508(8)
C65_26 C 0.61239(9) 0.84996(9) 0.19486(10)
C66_26 C 0.63205(8) 0.85030(10) 0.17179(10)
C67_26 C 0.63296(8) 0.83157(11) 0.15143(9)
C68_26 C 0.60943(8) 0.81481(8) 0.16146(8)
C69_26 C 0.60104(12) 0.78944(11) 0.14396(11)
H47_26 H 0.6095 0.7821 0.1293
C70_26 C 0.62268(12) 0.84134(13) 0.21811(9)
H48_26 H 0.6092 0.8417 0.2315
H49_26 H 0.6291 0.8236 0.2160
H50_26 H 0.6371 0.8527 0.2233
C71_26 C 0.59136(11) 0.87215(8) 0.18938(15)
H51_26 H 0.5883 0.8735 0.1707
H52_26 H 0.5751 0.8678 0.1982
H53_26 H 0.5978 0.8888 0.1959
C72_26 C 0.57387(12) 0.77992(9) 0.15879(13)
H54_26 H 0.5643 0.7658 0.1518
C1_27 C 0.46374(10) 0.19247(17) 0.28725(14)
C2_27 C 0.43604(9) 0.18343(12) 0.29329(10)
C3_27 C 0.42845(7) 0.18921(11) 0.31533(10)
H1_27 H 0.4402 0.1961 0.3278
C4_27 C 0.39905(7) 0.18508(8) 0.32251(8)
C5_27 C 0.38761(9) 0.19486(10) 0.34996(9)
C6_27 C 0.36795(8) 0.17179(10) 0.35030(10)
C7_27 C 0.36704(8) 0.15143(9) 0.33157(11)
C8_27 C 0.39057(8) 0.16146(8) 0.31481(8)
C9_27 C 0.39896(12) 0.14396(11) 0.28944(11)
H2_27 H 0.3905 0.1293 0.2821
C10_27 C 0.37732(12) 0.21811(9) 0.34134(13)
H3_27 H 0.3908 0.2315 0.3417
H4_27 H 0.3709 0.2160 0.3236
H5_27 H 0.3629 0.2233 0.3527
C11_27 C 0.40864(11) 0.18938(15) 0.37215(8)
H6_27 H 0.4117 0.1707 0.3735
H7_27 H 0.4249 0.1982 0.3678
H8_27 H 0.4022 0.1959 0.3888
C12_27 C 0.42613(12) 0.15879(13) 0.27992(9)
H9_27 H 0.4357 0.1518 0.2658
C13_27 C 0.30753(17) 0.21275(14) 0.46374(10)
C14_27 C 0.31657(12) 0.20671(10) 0.43604(9)
C15_27 C 0.31079(11) 0.18467(10) 0.42845(7)
H10_27 H 0.3039 0.1722 0.4402
C16_27 C 0.31492(8) 0.17749(8) 0.39905(7)
C17_27 C 0.30514(10) 0.15004(9) 0.38761(9)
C18_27 C 0.32821(10) 0.14970(10) 0.36795(8)
C19_27 C 0.34857(9) 0.16843(11) 0.36704(8)
C20_27 C 0.33854(8) 0.18519(8) 0.39057(8)
C21_27 C 0.35604(11) 0.21056(11) 0.39896(12)
H11_27 H 0.3707 0.2179 0.3905
C22_27 C 0.28189(9) 0.15866(13) 0.37732(12)
H12_27 H 0.2685 0.1583 0.3908
H13_27 H 0.2840 0.1764 0.3709
H14_27 H 0.2767 0.1473 0.3629
C23_27 C 0.31062(15) 0.12785(8) 0.40864(11)
H15_27 H 0.3293 0.1265 0.4117
H16_27 H 0.3018 0.1322 0.4249
H17_27 H 0.3041 0.1112 0.4022
C24_27 C 0.34121(13) 0.22008(9) 0.42613(12)
H18_27 H 0.3482 0.2342 0.4357
C25_27 C 0.28725(14) 0.03626(10) 0.30753(17)
C26_27 C 0.29329(10) 0.06396(9) 0.31657(12)
C27_27 C 0.31533(10) 0.07155(7) 0.31079(11)
H19_27 H 0.3278 0.0598 0.3039
C28_27 C 0.32251(8) 0.10095(7) 0.31492(8)
C29_27 C 0.34996(9) 0.11239(9) 0.30514(10)
C30_27 C 0.35030(10) 0.13205(8) 0.32821(10)
C31_27 C 0.33157(11) 0.13296(8) 0.34857(9)
C32_27 C 0.31481(8) 0.10943(8) 0.33854(8)
C33_27 C 0.28944(11) 0.10104(12) 0.35604(11)
H20_27 H 0.2821 0.1095 0.3707
C34_27 C 0.34134(13) 0.12268(12) 0.28189(9)
H21_27 H 0.3417 0.1092 0.2685
H22_27 H 0.3236 0.1291 0.2840
H23_27 H 0.3527 0.1371 0.2767
C35_27 C 0.37215(8) 0.09136(11) 0.31062(15)
H24_27 H 0.3735 0.0883 0.3293
H25_27 H 0.3678 0.0751 0.3018
H26_27 H 0.3888 0.0978 0.3041
C36_27 C 0.27992(9) 0.07387(12) 0.34121(13)
H27_27 H 0.2658 0.0643 0.3482
C37_27 C 0.30753(17) 0.03626(10) 0.21275(14)
C38_27 C 0.31657(12) 0.06396(9) 0.20671(10)
C39_27 C 0.31079(11) 0.07155(7) 0.18467(10)
H28_27 H 0.3039 0.0598 0.1722
C40_27 C 0.31492(8) 0.10095(7) 0.17749(8)
C41_27 C 0.30514(10) 0.11239(9) 0.15004(9)
C42_27 C 0.32821(10) 0.13205(8) 0.14970(10)
C43_27 C 0.34857(9) 0.13296(8) 0.16843(11)
C44_27 C 0.33854(8) 0.10943(8) 0.18519(8)
C45_27 C 0.35604(11) 0.10104(12) 0.21056(11)
H29_27 H 0.3707 0.1095 0.2179
C46_27 C 0.28189(9) 0.12268(12) 0.15866(13)
H30_27 H 0.2685 0.1092 0.1583
H31_27 H 0.2840 0.1291 0.1764
H32_27 H 0.2767 0.1371 0.1473
C47_27 C 0.31062(15) 0.09136(11) 0.12785(8)
H33_27 H 0.3293 0.0883 0.1265
H34_27 H 0.3018 0.0751 0.1322
H35_27 H 0.3041 0.0978 0.1112
C48_27 C 0.34121(13) 0.07387(12) 0.22008(9)
H36_27 H 0.3482 0.0643 0.2342
C49_27 C 0.28725(14) 0.19247(17) 0.03626(10)
C50_27 C 0.29329(10) 0.18343(12) 0.06396(9)
C51_27 C 0.31533(10) 0.18921(11) 0.07155(7)
H37_27 H 0.3278 0.1961 0.0598
C52_27 C 0.32251(8) 0.18508(8) 0.10095(7)
C53_27 C 0.34996(9) 0.19486(10) 0.11239(9)
C54_27 C 0.35030(10) 0.17179(10) 0.13205(8)
C55_27 C 0.33157(11) 0.15143(9) 0.13296(8)
C56_27 C 0.31481(8) 0.16146(8) 0.10943(8)
C57_27 C 0.28944(11) 0.14396(11) 0.10104(12)
H38_27 H 0.2821 0.1293 0.1095
C58_27 C 0.34134(13) 0.21811(9) 0.12268(12)
H39_27 H 0.3417 0.2315 0.1092
H40_27 H 0.3236 0.2160 0.1291
H41_27 H 0.3527 0.2233 0.1371
C59_27 C 0.37215(8) 0.18938(15) 0.09136(11)
H42_27 H 0.3735 0.1707 0.0883
H43_27 H 0.3678 0.1982 0.0751
H44_27 H 0.3888 0.1959 0.0978
C60_27 C 0.27992(9) 0.15879(13) 0.07387(12)
H45_27 H 0.2658 0.1518 0.0643
C61_27 C 0.46374(10) 0.21275(14) 0.19247(17)
C62_27 C 0.43604(9) 0.20671(10) 0.18343(12)
C63_27 C 0.42845(7) 0.18467(10) 0.18921(11)
H46_27 H 0.4402 0.1722 0.1961
C64_27 C 0.39905(7) 0.17749(8) 0.18508(8)
C65_27 C 0.38761(9) 0.15004(9) 0.19486(10)
C66_27 C 0.36795(8) 0.14970(10) 0.17179(10)
C67_27 C 0.36704(8) 0.16843(11) 0.15143(9)
C68_27 C 0.39057(8) 0.18519(8) 0.16146(8)
C69_27 C 0.39896(12) 0.21056(11) 0.14396(11)
H47_27 H 0.3905 0.2179 0.1293
C70_27 C 0.37732(12) 0.15866(13) 0.21811(9)
H48_27 H 0.3908 0.1583 0.2315
H49_27 H 0.3709 0.1764 0.2160
H50_27 H 0.3629 0.1473 0.2233
C71_27 C 0.40864(11) 0.12785(8) 0.18938(15)
H51_27 H 0.4117 0.1265 0.1707
H52_27 H 0.4249 0.1322 0.1982
H53_27 H 0.4022 0.1112 0.1959
C72_27 C 0.42613(12) 0.22008(9) 0.15879(13)
H54_27 H 0.4357 0.2342 0.1518
C1_28 C 0.53626(10) 0.19247(17) 0.71275(14)
C2_28 C 0.56396(9) 0.18343(12) 0.70671(10)
C3_28 C 0.57155(7) 0.18921(11) 0.68467(10)
H1_28 H 0.5598 0.1961 0.6722
C4_28 C 0.60095(7) 0.18508(8) 0.67749(8)
C5_28 C 0.61239(9) 0.19486(10) 0.65004(9)
C6_28 C 0.63205(8) 0.17179(10) 0.64970(10)
C7_28 C 0.63296(8) 0.15143(9) 0.66843(11)
C8_28 C 0.60943(8) 0.16146(8) 0.68519(8)
C9_28 C 0.60104(12) 0.14396(11) 0.71056(11)
H2_28 H 0.6095 0.1293 0.7179
C10_28 C 0.62268(12) 0.21811(9) 0.65866(13)
H3_28 H 0.6092 0.2315 0.6583
H4_28 H 0.6291 0.2160 0.6764
H5_28 H 0.6371 0.2233 0.6473
C11_28 C 0.59136(11) 0.18938(15) 0.62785(8)
H6_28 H 0.5883 0.1707 0.6265
H7_28 H 0.5751 0.1982 0.6322
H8_28 H 0.5978 0.1959 0.6112
C12_28 C 0.57387(12) 0.15879(13) 0.72008(9)
H9_28 H 0.5643 0.1518 0.7342
C13_28 C 0.69247(17) 0.21275(14) 0.53626(10)
C14_28 C 0.68343(12) 0.20671(10) 0.56396(9)
C15_28 C 0.68921(11) 0.18467(10) 0.57155(7)
H10_28 H 0.6961 0.1722 0.5598
C16_28 C 0.68508(8) 0.17749(8) 0.60095(7)
C17_28 C 0.69486(10) 0.15004(9) 0.61239(9)
C18_28 C 0.67179(10) 0.14970(10) 0.63205(8)
C19_28 C 0.65143(9) 0.16843(11) 0.63296(8)
C20_28 C 0.66146(8) 0.18519(8) 0.60943(8)
C21_28 C 0.64396(11) 0.21056(11) 0.60104(12)
H11_28 H 0.6293 0.2179 0.6095
C22_28 C 0.71811(9) 0.15866(13) 0.62268(12)
H12_28 H 0.7315 0.1583 0.6092
H13_28 H 0.7160 0.1764 0.6291
H14_28 H 0.7233 0.1473 0.6371
C23_28 C 0.68938(15) 0.12785(8) 0.59136(11)
H15_28 H 0.6707 0.1265 0.5883
H16_28 H 0.6982 0.1322 0.5751
H17_28 H 0.6959 0.1112 0.5978
C24_28 C 0.65879(13) 0.22008(9) 0.57387(12)
H18_28 H 0.6518 0.2342 0.5643
C25_28 C 0.71275(14) 0.03626(10) 0.69247(17)
C26_28 C 0.70671(10) 0.06396(9) 0.68343(12)
C27_28 C 0.68467(10) 0.07155(7) 0.68921(11)
H19_28 H 0.6722 0.0598 0.6961
C28_28 C 0.67749(8) 0.10095(7) 0.68508(8)
C29_28 C 0.65004(9) 0.11239(9) 0.69486(10)
C30_28 C 0.64970(10) 0.13205(8) 0.67179(10)
C31_28 C 0.66843(11) 0.13296(8) 0.65143(9)
C32_28 C 0.68519(8) 0.10943(8) 0.66146(8)
C33_28 C 0.71056(11) 0.10104(12) 0.64396(11)
H20_28 H 0.7179 0.1095 0.6293
C34_28 C 0.65866(13) 0.12268(12) 0.71811(9)
H21_28 H 0.6583 0.1092 0.7315
H22_28 H 0.6764 0.1291 0.7160
H23_28 H 0.6473 0.1371 0.7233
C35_28 C 0.62785(8) 0.09136(11) 0.68938(15)
H24_28 H 0.6265 0.0883 0.6707
H25_28 H 0.6322 0.0751 0.6982
H26_28 H 0.6112 0.0978 0.6959
C36_28 C 0.72008(9) 0.07387(12) 0.65879(13)
H27_28 H 0.7342 0.0643 0.6518
C37_28 C 0.69247(17) 0.03626(10) 0.78725(14)
C38_28 C 0.68343(12) 0.06396(9) 0.79329(10)
C39_28 C 0.68921(11) 0.07155(7) 0.81533(10)
H28_28 H 0.6961 0.0598 0.8278
C40_28 C 0.68508(8) 0.10095(7) 0.82251(8)
C41_28 C 0.69486(10) 0.11239(9) 0.84996(9)
C42_28 C 0.67179(10) 0.13205(8) 0.85030(10)
C43_28 C 0.65143(9) 0.13296(8) 0.83157(11)
C44_28 C 0.66146(8) 0.10943(8) 0.81481(8)
C45_28 C 0.64396(11) 0.10104(12) 0.78944(11)
H29_28 H 0.6293 0.1095 0.7821
C46_28 C 0.71811(9) 0.12268(12) 0.84134(13)
H30_28 H 0.7315 0.1092 0.8417
H31_28 H 0.7160 0.1291 0.8236
H32_28 H 0.7233 0.1371 0.8527
C47_28 C 0.68938(15) 0.09136(11) 0.87215(8)
H33_28 H 0.6707 0.0883 0.8735
H34_28 H 0.6982 0.0751 0.8678
H35_28 H 0.6959 0.0978 0.8888
C48_28 C 0.65879(13) 0.07387(12) 0.77992(9)
H36_28 H 0.6518 0.0643 0.7658
C49_28 C 0.71275(14) 0.19247(17) 0.96374(10)
C50_28 C 0.70671(10) 0.18343(12) 0.93604(9)
C51_28 C 0.68467(10) 0.18921(11) 0.92845(7)
H37_28 H 0.6722 0.1961 0.9402
C52_28 C 0.67749(8) 0.18508(8) 0.89905(7)
C53_28 C 0.65004(9) 0.19486(10) 0.88761(9)
C54_28 C 0.64970(10) 0.17179(10) 0.86795(8)
C55_28 C 0.66843(11) 0.15143(9) 0.86704(8)
C56_28 C 0.68519(8) 0.16146(8) 0.89057(8)
C57_28 C 0.71056(11) 0.14396(11) 0.89896(12)
H38_28 H 0.7179 0.1293 0.8905
C58_28 C 0.65866(13) 0.21811(9) 0.87732(12)
H39_28 H 0.6583 0.2315 0.8908
H40_28 H 0.6764 0.2160 0.8709
H41_28 H 0.6473 0.2233 0.8629
C59_28 C 0.62785(8) 0.18938(15) 0.90864(11)
H42_28 H 0.6265 0.1707 0.9117
H43_28 H 0.6322 0.1982 0.9249
H44_28 H 0.6112 0.1959 0.9022
C60_28 C 0.72008(9) 0.15879(13) 0.92613(12)
H45_28 H 0.7342 0.1518 0.9357
C61_28 C 0.53626(10) 0.21275(14) 0.80753(17)
C62_28 C 0.56396(9) 0.20671(10) 0.81657(12)
C63_28 C 0.57155(7) 0.18467(10) 0.81079(11)
H46_28 H 0.5598 0.1722 0.8039
C64_28 C 0.60095(7) 0.17749(8) 0.81492(8)
C65_28 C 0.61239(9) 0.15004(9) 0.80514(10)
C66_28 C 0.63205(8) 0.14970(10) 0.82821(10)
C67_28 C 0.63296(8) 0.16843(11) 0.84857(9)
C68_28 C 0.60943(8) 0.18519(8) 0.83854(8)
C69_28 C 0.60104(12) 0.21056(11) 0.85604(11)
H47_28 H 0.6095 0.2179 0.8707
C70_28 C 0.62268(12) 0.15866(13) 0.78189(9)
H48_28 H 0.6092 0.1583 0.7685
H49_28 H 0.6291 0.1764 0.7840
H50_28 H 0.6371 0.1473 0.7767
C71_28 C 0.59136(11) 0.12785(8) 0.81062(15)
H51_28 H 0.5883 0.1265 0.8293
H52_28 H 0.5751 0.1322 0.8018
H53_28 H 0.5978 0.1112 0.8041
C72_28 C 0.57387(12) 0.22008(9) 0.84121(13)
H54_28 H 0.5643 0.2342 0.8482
C1_29 C 0.80753(17) 0.21275(14) 0.96374(10)
C2_29 C 0.81657(12) 0.20671(10) 0.93604(9)
C3_29 C 0.81079(11) 0.18467(10) 0.92845(7)
H1_29 H 0.8039 0.1722 0.9402
C4_29 C 0.81492(8) 0.17749(8) 0.89905(7)
C5_29 C 0.80514(10) 0.15004(9) 0.88761(9)
C6_29 C 0.82821(10) 0.14970(10) 0.86795(8)
C7_29 C 0.84857(9) 0.16843(11) 0.86704(8)
C8_29 C 0.83854(8) 0.18519(8) 0.89057(8)
C9_29 C 0.85604(11) 0.21056(11) 0.89896(12)
H2_29 H 0.8707 0.2179 0.8905
C10_29 C 0.78189(9) 0.15866(13) 0.87732(12)
H3_29 H 0.7685 0.1583 0.8908
H4_29 H 0.7840 0.1764 0.8709
H5_29 H 0.7767 0.1473 0.8629
C11_29 C 0.81062(15) 0.12785(8) 0.90864(11)
H6_29 H 0.8293 0.1265 0.9117
H7_29 H 0.8018 0.1322 0.9249
H8_29 H 0.8041 0.1112 0.9022
C12_29 C 0.84121(13) 0.22008(9) 0.92613(12)
H9_29 H 0.8482 0.2342 0.9357
C13_29 C 0.78725(14) 0.03626(10) 0.80753(17)
C14_29 C 0.79329(10) 0.06396(9) 0.81657(12)
C15_29 C 0.81533(10) 0.07155(7) 0.81079(11)
H10_29 H 0.8278 0.0598 0.8039
C16_29 C 0.82251(8) 0.10095(7) 0.81492(8)
C17_29 C 0.84996(9) 0.11239(9) 0.80514(10)
C18_29 C 0.85030(10) 0.13205(8) 0.82821(10)
C19_29 C 0.83157(11) 0.13296(8) 0.84857(9)
C20_29 C 0.81481(8) 0.10943(8) 0.83854(8)
C21_29 C 0.78944(11) 0.10104(12) 0.85604(11)
H11_29 H 0.7821 0.1095 0.8707
C22_29 C 0.84134(13) 0.12268(12) 0.78189(9)
H12_29 H 0.8417 0.1092 0.7685
H13_29 H 0.8236 0.1291 0.7840
H14_29 H 0.8527 0.1371 0.7767
C23_29 C 0.87215(8) 0.09136(11) 0.81062(15)
H15_29 H 0.8735 0.0883 0.8293
H16_29 H 0.8678 0.0751 0.8018
H17_29 H 0.8888 0.0978 0.8041
C24_29 C 0.77992(9) 0.07387(12) 0.84121(13)
H18_29 H 0.7658 0.0643 0.8482
C25_29 C 0.96374(10) 0.19247(17) 0.78725(14)
C26_29 C 0.93604(9) 0.18343(12) 0.79329(10)
C27_29 C 0.92845(7) 0.18921(11) 0.81533(10)
H19_29 H 0.9402 0.1961 0.8278
C28_29 C 0.89905(7) 0.18508(8) 0.82251(8)
C29_29 C 0.88761(9) 0.19486(10) 0.84996(9)
C30_29 C 0.86795(8) 0.17179(10) 0.85030(10)
C31_29 C 0.86704(8) 0.15143(9) 0.83157(11)
C32_29 C 0.89057(8) 0.16146(8) 0.81481(8)
C33_29 C 0.89896(12) 0.14396(11) 0.78944(11)
H20_29 H 0.8905 0.1293 0.7821
C34_29 C 0.87732(12) 0.21811(9) 0.84134(13)
H21_29 H 0.8908 0.2315 0.8417
H22_29 H 0.8709 0.2160 0.8236
H23_29 H 0.8629 0.2233 0.8527
C35_29 C 0.90864(11) 0.18938(15) 0.87215(8)
H24_29 H 0.9117 0.1707 0.8735
H25_29 H 0.9249 0.1982 0.8678
H26_29 H 0.9022 0.1959 0.8888
C36_29 C 0.92613(12) 0.15879(13) 0.77992(9)
H27_29 H 0.9357 0.1518 0.7658
C1_30 C 0.80753(17) 0.78725(14) 0.03626(10)
C2_30 C 0.81657(12) 0.79329(10) 0.06396(9)
C3_30 C 0.81079(11) 0.81533(10) 0.07155(7)
H1_30 H 0.8039 0.8278 0.0598
C4_30 C 0.81492(8) 0.82251(8) 0.10095(7)
C5_30 C 0.80514(10) 0.84996(9) 0.11239(9)
C6_30 C 0.82821(10) 0.85030(10) 0.13205(8)
C7_30 C 0.84857(9) 0.83157(11) 0.13296(8)
C8_30 C 0.83854(8) 0.81481(8) 0.10943(8)
C9_30 C 0.85604(11) 0.78944(11) 0.10104(12)
H2_30 H 0.8707 0.7821 0.1095
C10_30 C 0.78189(9) 0.84134(13) 0.12268(12)
H3_30 H 0.7685 0.8417 0.1092
H4_30 H 0.7840 0.8236 0.1291
H5_30 H 0.7767 0.8527 0.1371
C11_30 C 0.81062(15) 0.87215(8) 0.09136(11)
H6_30 H 0.8293 0.8735 0.0883
H7_30 H 0.8018 0.8678 0.0751
H8_30 H 0.8041 0.8888 0.0978
C12_30 C 0.84121(13) 0.77992(9) 0.07387(12)
H9_30 H 0.8482 0.7658 0.0643
C13_30 C 0.78725(14) 0.96374(10) 0.19247(17)
C14_30 C 0.79329(10) 0.93604(9) 0.18343(12)
C15_30 C 0.81533(10) 0.92845(7) 0.18921(11)
H10_30 H 0.8278 0.9402 0.1961
C16_30 C 0.82251(8) 0.89905(7) 0.18508(8)
C17_30 C 0.84996(9) 0.88761(9) 0.19486(10)
C18_30 C 0.85030(10) 0.86795(8) 0.17179(10)
C19_30 C 0.83157(11) 0.86704(8) 0.15143(9)
C20_30 C 0.81481(8) 0.89057(8) 0.16146(8)
C21_30 C 0.78944(11) 0.89896(12) 0.14396(11)
H11_30 H 0.7821 0.8905 0.1293
C22_30 C 0.84134(13) 0.87732(12) 0.21811(9)
H12_30 H 0.8417 0.8908 0.2315
H13_30 H 0.8236 0.8709 0.2160
H14_30 H 0.8527 0.8629 0.2233
C23_30 C 0.87215(8) 0.90864(11) 0.18938(15)
H15_30 H 0.8735 0.9117 0.1707
H16_30 H 0.8678 0.9249 0.1982
H17_30 H 0.8888 0.9022 0.1959
C24_30 C 0.77992(9) 0.92613(12) 0.15879(13)
H18_30 H 0.7658 0.9357 0.1518
C25_30 C 0.96374(10) 0.80753(17) 0.21275(14)
C26_30 C 0.93604(9) 0.81657(12) 0.20671(10)
C27_30 C 0.92845(7) 0.81079(11) 0.18467(10)
H19_30 H 0.9402 0.8039 0.1722
C28_30 C 0.89905(7) 0.81492(8) 0.17749(8)
C29_30 C 0.88761(9) 0.80514(10) 0.15004(9)
C30_30 C 0.86795(8) 0.82821(10) 0.14970(10)
C31_30 C 0.86704(8) 0.84857(9) 0.16843(11)
C32_30 C 0.89057(8) 0.83854(8) 0.18519(8)
C33_30 C 0.89896(12) 0.85604(11) 0.21056(11)
H20_30 H 0.8905 0.8707 0.2179
C34_30 C 0.87732(12) 0.78189(9) 0.15866(13)
H21_30 H 0.8908 0.7685 0.1583
H22_30 H 0.8709 0.7840 0.1764
H23_30 H 0.8629 0.7767 0.1473
C35_30 C 0.90864(11) 0.81062(15) 0.12785(8)
H24_30 H 0.9117 0.8293 0.1265
H25_30 H 0.9249 0.8018 0.1322
H26_30 H 0.9022 0.8041 0.1112
C36_30 C 0.92613(12) 0.84121(13) 0.22008(9)
H27_30 H 0.9357 0.8482 0.2342
C1_31 C 0.19247(17) 0.78725(14) 0.96374(10)
C2_31 C 0.18343(12) 0.79329(10) 0.93604(9)
C3_31 C 0.18921(11) 0.81533(10) 0.92845(7)
H1_31 H 0.1961 0.8278 0.9402
C4_31 C 0.18508(8) 0.82251(8) 0.89905(7)
C5_31 C 0.19486(10) 0.84996(9) 0.88761(9)
C6_31 C 0.17179(10) 0.85030(10) 0.86795(8)
C7_31 C 0.15143(9) 0.83157(11) 0.86704(8)
C8_31 C 0.16146(8) 0.81481(8) 0.89057(8)
C9_31 C 0.14396(11) 0.78944(11) 0.89896(12)
H2_31 H 0.1293 0.7821 0.8905
C10_31 C 0.21811(9) 0.84134(13) 0.87732(12)
H3_31 H 0.2315 0.8417 0.8908
H4_31 H 0.2160 0.8236 0.8709
H5_31 H 0.2233 0.8527 0.8629
C11_31 C 0.18938(15) 0.87215(8) 0.90864(11)
H6_31 H 0.1707 0.8735 0.9117
H7_31 H 0.1982 0.8678 0.9249
H8_31 H 0.1959 0.8888 0.9022
C12_31 C 0.15879(13) 0.77992(9) 0.92613(12)
H9_31 H 0.1518 0.7658 0.9357
C13_31 C 0.21275(14) 0.96374(10) 0.80753(17)
C14_31 C 0.20671(10) 0.93604(9) 0.81657(12)
C15_31 C 0.18467(10) 0.92845(7) 0.81079(11)
H10_31 H 0.1722 0.9402 0.8039
C16_31 C 0.17749(8) 0.89905(7) 0.81492(8)
C17_31 C 0.15004(9) 0.88761(9) 0.80514(10)
C18_31 C 0.14970(10) 0.86795(8) 0.82821(10)
C19_31 C 0.16843(11) 0.86704(8) 0.84857(9)
C20_31 C 0.18519(8) 0.89057(8) 0.83854(8)
C21_31 C 0.21056(11) 0.89896(12) 0.85604(11)
H11_31 H 0.2179 0.8905 0.8707
C22_31 C 0.15866(13) 0.87732(12) 0.78189(9)
H12_31 H 0.1583 0.8908 0.7685
H13_31 H 0.1764 0.8709 0.7840
H14_31 H 0.1473 0.8629 0.7767
C23_31 C 0.12785(8) 0.90864(11) 0.81062(15)
H15_31 H 0.1265 0.9117 0.8293
H16_31 H 0.1322 0.9249 0.8018
H17_31 H 0.1112 0.9022 0.8041
C24_31 C 0.22008(9) 0.92613(12) 0.84121(13)
H18_31 H 0.2342 0.9357 0.8482
C25_31 C 0.03626(10) 0.80753(17) 0.78725(14)
C26_31 C 0.06396(9) 0.81657(12) 0.79329(10)
C27_31 C 0.07155(7) 0.81079(11) 0.81533(10)
H19_31 H 0.0598 0.8039 0.8278
C28_31 C 0.10095(7) 0.81492(8) 0.82251(8)
C29_31 C 0.11239(9) 0.80514(10) 0.84996(9)
C30_31 C 0.13205(8) 0.82821(10) 0.85030(10)
C31_31 C 0.13296(8) 0.84857(9) 0.83157(11)
C32_31 C 0.10943(8) 0.83854(8) 0.81481(8)
C33_31 C 0.10104(12) 0.85604(11) 0.78944(11)
H20_31 H 0.1095 0.8707 0.7821
C34_31 C 0.12268(12) 0.78189(9) 0.84134(13)
H21_31 H 0.1092 0.7685 0.8417
H22_31 H 0.1291 0.7840 0.8236
H23_31 H 0.1371 0.7767 0.8527
C35_31 C 0.09136(11) 0.81062(15) 0.87215(8)
H24_31 H 0.0883 0.8293 0.8735
H25_31 H 0.0751 0.8018 0.8678
H26_31 H 0.0978 0.8041 0.8888
C36_31 C 0.07387(12) 0.84121(13) 0.77992(9)
H27_31 H 0.0643 0.8482 0.7658
C1_32 C 0.19247(17) 0.21275(14) 0.03626(10)
C2_32 C 0.18343(12) 0.20671(10) 0.06396(9)
C3_32 C 0.18921(11) 0.18467(10) 0.07155(7)
H1_32 H 0.1961 0.1722 0.0598
C4_32 C 0.18508(8) 0.17749(8) 0.10095(7)
C5_32 C 0.19486(10) 0.15004(9) 0.11239(9)
C6_32 C 0.17179(10) 0.14970(10) 0.13205(8)
C7_32 C 0.15143(9) 0.16843(11) 0.13296(8)
C8_32 C 0.16146(8) 0.18519(8) 0.10943(8)
C9_32 C 0.14396(11) 0.21056(11) 0.10104(12)
H2_32 H 0.1293 0.2179 0.1095
C10_32 C 0.21811(9) 0.15866(13) 0.12268(12)
H3_32 H 0.2315 0.1583 0.1092
H4_32 H 0.2160 0.1764 0.1291
H5_32 H 0.2233 0.1473 0.1371
C11_32 C 0.18938(15) 0.12785(8) 0.09136(11)
H6_32 H 0.1707 0.1265 0.0883
H7_32 H 0.1982 0.1322 0.0751
H8_32 H 0.1959 0.1112 0.0978
C12_32 C 0.15879(13) 0.22008(9) 0.07387(12)
H9_32 H 0.1518 0.2342 0.0643
C13_32 C 0.21275(14) 0.03626(10) 0.19247(17)
C14_32 C 0.20671(10) 0.06396(9) 0.18343(12)
C15_32 C 0.18467(10) 0.07155(7) 0.18921(11)
H10_32 H 0.1722 0.0598 0.1961
C16_32 C 0.17749(8) 0.10095(7) 0.18508(8)
C17_32 C 0.15004(9) 0.11239(9) 0.19486(10)
C18_32 C 0.14970(10) 0.13205(8) 0.17179(10)
C19_32 C 0.16843(11) 0.13296(8) 0.15143(9)
C20_32 C 0.18519(8) 0.10943(8) 0.16146(8)
C21_32 C 0.21056(11) 0.10104(12) 0.14396(11)
H11_32 H 0.2179 0.1095 0.1293
C22_32 C 0.15866(13) 0.12268(12) 0.21811(9)
H12_32 H 0.1583 0.1092 0.2315
H13_32 H 0.1764 0.1291 0.2160
H14_32 H 0.1473 0.1371 0.2233
C23_32 C 0.12785(8) 0.09136(11) 0.18938(15)
H15_32 H 0.1265 0.0883 0.1707
H16_32 H 0.1322 0.0751 0.1982
H17_32 H 0.1112 0.0978 0.1959
C24_32 C 0.22008(9) 0.07387(12) 0.15879(13)
H18_32 H 0.2342 0.0643 0.1518
C25_32 C 0.03626(10) 0.19247(17) 0.21275(14)
C26_32 C 0.06396(9) 0.18343(12) 0.20671(10)
C27_32 C 0.07155(7) 0.18921(11) 0.18467(10)
H19_32 H 0.0598 0.1961 0.1722
C28_32 C 0.10095(7) 0.18508(8) 0.17749(8)
C29_32 C 0.11239(9) 0.19486(10) 0.15004(9)
C30_32 C 0.13205(8) 0.17179(10) 0.14970(10)
C31_32 C 0.13296(8) 0.15143(9) 0.16843(11)
C32_32 C 0.10943(8) 0.16146(8) 0.18519(8)
C33_32 C 0.10104(12) 0.14396(11) 0.21056(11)
H20_32 H 0.1095 0.1293 0.2179
C34_32 C 0.12268(12) 0.21811(9) 0.15866(13)
H21_32 H 0.1092 0.2315 0.1583
H22_32 H 0.1291 0.2160 0.1764
H23_32 H 0.1371 0.2233 0.1473
C35_32 C 0.09136(11) 0.18938(15) 0.12785(8)
H24_32 H 0.0883 0.1707 0.1265
H25_32 H 0.0751 0.1982 0.1322
H26_32 H 0.0978 0.1959 0.1112
C36_32 C 0.07387(12) 0.15879(13) 0.22008(9)
H27_32 H 0.0643 0.1518 0.2342
C37_29 C 0.30753(17) 0.46374(10) 0.28725(14)
C38_29 C 0.31657(12) 0.43604(9) 0.29329(10)
C39_29 C 0.31079(11) 0.42845(7) 0.31533(10)
H28_29 H 0.3039 0.4402 0.3278
C40_29 C 0.31492(8) 0.39905(7) 0.32251(8)
C41_29 C 0.30514(10) 0.38761(9) 0.34996(9)
C42_29 C 0.32821(10) 0.36795(8) 0.35030(10)
C43_29 C 0.34857(9) 0.36704(8) 0.33157(11)
C44_29 C 0.33854(8) 0.39057(8) 0.31481(8)
C45_29 C 0.35604(11) 0.39896(12) 0.28944(11)
H29_29 H 0.3707 0.3905 0.2821
C46_29 C 0.28189(9) 0.37732(12) 0.34134(13)
H30_29 H 0.2685 0.3908 0.3417
H31_29 H 0.2840 0.3709 0.3236
H32_29 H 0.2767 0.3629 0.3527
C47_29 C 0.31062(15) 0.40864(11) 0.37215(8)
H33_29 H 0.3293 0.4117 0.3735
H34_29 H 0.3018 0.4249 0.3678
H35_29 H 0.3041 0.4022 0.3888
C48_29 C 0.34121(13) 0.42613(12) 0.27992(9)
H36_29 H 0.3482 0.4357 0.2658
C49_29 C 0.28725(14) 0.30753(17) 0.46374(10)
C50_29 C 0.29329(10) 0.31657(12) 0.43604(9)
C51_29 C 0.31533(10) 0.31079(11) 0.42845(7)
H37_29 H 0.3278 0.3039 0.4402
C52_29 C 0.32251(8) 0.31492(8) 0.39905(7)
C53_29 C 0.34996(9) 0.30514(10) 0.38761(9)
C54_29 C 0.35030(10) 0.32821(10) 0.36795(8)
C55_29 C 0.33157(11) 0.34857(9) 0.36704(8)
C56_29 C 0.31481(8) 0.33854(8) 0.39057(8)
C57_29 C 0.28944(11) 0.35604(11) 0.39896(12)
H38_29 H 0.2821 0.3707 0.3905
C58_29 C 0.34134(13) 0.28189(9) 0.37732(12)
H39_29 H 0.3417 0.2685 0.3908
H40_29 H 0.3236 0.2840 0.3709
H41_29 H 0.3527 0.2767 0.3629
C59_29 C 0.37215(8) 0.31062(15) 0.40864(11)
H42_29 H 0.3735 0.3293 0.4117
H43_29 H 0.3678 0.3018 0.4249
H44_29 H 0.3888 0.3041 0.4022
C60_29 C 0.27992(9) 0.34121(13) 0.42613(12)
H45_29 H 0.2658 0.3482 0.4357
C61_29 C 0.46374(10) 0.28725(14) 0.30753(17)
C62_29 C 0.43604(9) 0.29329(10) 0.31657(12)
C63_29 C 0.42845(7) 0.31533(10) 0.31079(11)
H46_29 H 0.4402 0.3278 0.3039
C64_29 C 0.39905(7) 0.32251(8) 0.31492(8)
C65_29 C 0.38761(9) 0.34996(9) 0.30514(10)
C66_29 C 0.36795(8) 0.35030(10) 0.32821(10)
C67_29 C 0.36704(8) 0.33157(11) 0.34857(9)
C68_29 C 0.39057(8) 0.31481(8) 0.33854(8)
C69_29 C 0.39896(12) 0.28944(11) 0.35604(11)
H47_29 H 0.3905 0.2821 0.3707
C70_29 C 0.37732(12) 0.34134(13) 0.28189(9)
H48_29 H 0.3908 0.3417 0.2685
H49_29 H 0.3709 0.3236 0.2840
H50_29 H 0.3629 0.3527 0.2767
C71_29 C 0.40864(11) 0.37215(8) 0.31062(15)
H51_29 H 0.4117 0.3735 0.3293
H52_29 H 0.4249 0.3678 0.3018
H53_29 H 0.4022 0.3888 0.3041
C72_29 C 0.42613(12) 0.27992(9) 0.34121(13)
H54_29 H 0.4357 0.2658 0.3482
C37_30 C 0.69247(17) 0.46374(10) 0.71275(14)
C38_30 C 0.68343(12) 0.43604(9) 0.70671(10)
C39_30 C 0.68921(11) 0.42845(7) 0.68467(10)
H28_30 H 0.6961 0.4402 0.6722
C40_30 C 0.68508(8) 0.39905(7) 0.67749(8)
C41_30 C 0.69486(10) 0.38761(9) 0.65004(9)
C42_30 C 0.67179(10) 0.36795(8) 0.64970(10)
C43_30 C 0.65143(9) 0.36704(8) 0.66843(11)
C44_30 C 0.66146(8) 0.39057(8) 0.68519(8)
C45_30 C 0.64396(11) 0.39896(12) 0.71056(11)
H29_30 H 0.6293 0.3905 0.7179
C46_30 C 0.71811(9) 0.37732(12) 0.65866(13)
H30_30 H 0.7315 0.3908 0.6583
H31_30 H 0.7160 0.3709 0.6764
H32_30 H 0.7233 0.3629 0.6473
C47_30 C 0.68938(15) 0.40864(11) 0.62785(8)
H33_30 H 0.6707 0.4117 0.6265
H34_30 H 0.6982 0.4249 0.6322
H35_30 H 0.6959 0.4022 0.6112
C48_30 C 0.65879(13) 0.42613(12) 0.72008(9)
H36_30 H 0.6518 0.4357 0.7342
C49_30 C 0.71275(14) 0.30753(17) 0.53626(10)
C50_30 C 0.70671(10) 0.31657(12) 0.56396(9)
C51_30 C 0.68467(10) 0.31079(11) 0.57155(7)
H37_30 H 0.6722 0.3039 0.5598
C52_30 C 0.67749(8) 0.31492(8) 0.60095(7)
C53_30 C 0.65004(9) 0.30514(10) 0.61239(9)
C54_30 C 0.64970(10) 0.32821(10) 0.63205(8)
C55_30 C 0.66843(11) 0.34857(9) 0.63296(8)
C56_30 C 0.68519(8) 0.33854(8) 0.60943(8)
C57_30 C 0.71056(11) 0.35604(11) 0.60104(12)
H38_30 H 0.7179 0.3707 0.6095
C58_30 C 0.65866(13) 0.28189(9) 0.62268(12)
H39_30 H 0.6583 0.2685 0.6092
H40_30 H 0.6764 0.2840 0.6291
H41_30 H 0.6473 0.2767 0.6371
C59_30 C 0.62785(8) 0.31062(15) 0.59136(11)
H42_30 H 0.6265 0.3293 0.5883
H43_30 H 0.6322 0.3018 0.5751
H44_30 H 0.6112 0.3041 0.5978
C60_30 C 0.72008(9) 0.34121(13) 0.57387(12)
H45_30 H 0.7342 0.3482 0.5643
C61_30 C 0.53626(10) 0.28725(14) 0.69247(17)
C62_30 C 0.56396(9) 0.29329(10) 0.68343(12)
C63_30 C 0.57155(7) 0.31533(10) 0.68921(11)
H46_30 H 0.5598 0.3278 0.6961
C64_30 C 0.60095(7) 0.32251(8) 0.68508(8)
C65_30 C 0.61239(9) 0.34996(9) 0.69486(10)
C66_30 C 0.63205(8) 0.35030(10) 0.67179(10)
C67_30 C 0.63296(8) 0.33157(11) 0.65143(9)
C68_30 C 0.60943(8) 0.31481(8) 0.66146(8)
C69_30 C 0.60104(12) 0.28944(11) 0.64396(11)
H47_30 H 0.6095 0.2821 0.6293
C70_30 C 0.62268(12) 0.34134(13) 0.71811(9)
H48_30 H 0.6092 0.3417 0.7315
H49_30 H 0.6291 0.3236 0.7160
H50_30 H 0.6371 0.3527 0.7233
C71_30 C 0.59136(11) 0.37215(8) 0.68938(15)
H51_30 H 0.5883 0.3735 0.6707
H52_30 H 0.5751 0.3678 0.6982
H53_30 H 0.5978 0.3888 0.6959
C72_30 C 0.57387(12) 0.27992(9) 0.65879(13)
H54_30 H 0.5643 0.2658 0.6518
C37_31 C 0.30753(17) 0.53626(10) 0.71275(14)
C38_31 C 0.31657(12) 0.56396(9) 0.70671(10)
C39_31 C 0.31079(11) 0.57155(7) 0.68467(10)
H28_31 H 0.3039 0.5598 0.6722
C40_31 C 0.31492(8) 0.60095(7) 0.67749(8)
C41_31 C 0.30514(10) 0.61239(9) 0.65004(9)
C42_31 C 0.32821(10) 0.63205(8) 0.64970(10)
C43_31 C 0.34857(9) 0.63296(8) 0.66843(11)
C44_31 C 0.33854(8) 0.60943(8) 0.68519(8)
C45_31 C 0.35604(11) 0.60104(12) 0.71056(11)
H29_31 H 0.3707 0.6095 0.7179
C46_31 C 0.28189(9) 0.62268(12) 0.65866(13)
H30_31 H 0.2685 0.6092 0.6583
H31_31 H 0.2840 0.6291 0.6764
H32_31 H 0.2767 0.6371 0.6473
C47_31 C 0.31062(15) 0.59136(11) 0.62785(8)
H33_31 H 0.3293 0.5883 0.6265
H34_31 H 0.3018 0.5751 0.6322
H35_31 H 0.3041 0.5978 0.6112
C48_31 C 0.34121(13) 0.57387(12) 0.72008(9)
H36_31 H 0.3482 0.5643 0.7342
C49_31 C 0.28725(14) 0.69247(17) 0.53626(10)
C50_31 C 0.29329(10) 0.68343(12) 0.56396(9)
C51_31 C 0.31533(10) 0.68921(11) 0.57155(7)
H37_31 H 0.3278 0.6961 0.5598
C52_31 C 0.32251(8) 0.68508(8) 0.60095(7)
C53_31 C 0.34996(9) 0.69486(10) 0.61239(9)
C54_31 C 0.35030(10) 0.67179(10) 0.63205(8)
C55_31 C 0.33157(11) 0.65143(9) 0.63296(8)
C56_31 C 0.31481(8) 0.66146(8) 0.60943(8)
C57_31 C 0.28944(11) 0.64396(11) 0.60104(12)
H38_31 H 0.2821 0.6293 0.6095
C58_31 C 0.34134(13) 0.71811(9) 0.62268(12)
H39_31 H 0.3417 0.7315 0.6092
H40_31 H 0.3236 0.7160 0.6291
H41_31 H 0.3527 0.7233 0.6371
C59_31 C 0.37215(8) 0.68938(15) 0.59136(11)
H42_31 H 0.3735 0.6707 0.5883
H43_31 H 0.3678 0.6982 0.5751
H44_31 H 0.3888 0.6959 0.5978
C60_31 C 0.27992(9) 0.65879(13) 0.57387(12)
H45_31 H 0.2658 0.6518 0.5643
C61_31 C 0.46374(10) 0.71275(14) 0.69247(17)
C62_31 C 0.43604(9) 0.70671(10) 0.68343(12)
C63_31 C 0.42845(7) 0.68467(10) 0.68921(11)
H46_31 H 0.4402 0.6722 0.6961
C64_31 C 0.39905(7) 0.67749(8) 0.68508(8)
C65_31 C 0.38761(9) 0.65004(9) 0.69486(10)
C66_31 C 0.36795(8) 0.64970(10) 0.67179(10)
C67_31 C 0.36704(8) 0.66843(11) 0.65143(9)
C68_31 C 0.39057(8) 0.68519(8) 0.66146(8)
C69_31 C 0.39896(12) 0.71056(11) 0.64396(11)
H47_31 H 0.3905 0.7179 0.6293
C70_31 C 0.37732(12) 0.65866(13) 0.71811(9)
H48_31 H 0.3908 0.6583 0.7315
H49_31 H 0.3709 0.6764 0.7160
H50_31 H 0.3629 0.6473 0.7233
C71_31 C 0.40864(11) 0.62785(8) 0.68938(15)
H51_31 H 0.4117 0.6265 0.6707
H52_31 H 0.4249 0.6322 0.6982
H53_31 H 0.4022 0.6112 0.6959
C72_31 C 0.42613(12) 0.72008(9) 0.65879(13)
H54_31 H 0.4357 0.7342 0.6518
C37_32 C 0.69247(17) 0.53626(10) 0.28725(14)
C38_32 C 0.68343(12) 0.56396(9) 0.29329(10)
C39_32 C 0.68921(11) 0.57155(7) 0.31533(10)
H28_32 H 0.6961 0.5598 0.3278
C40_32 C 0.68508(8) 0.60095(7) 0.32251(8)
C41_32 C 0.69486(10) 0.61239(9) 0.34996(9)
C42_32 C 0.67179(10) 0.63205(8) 0.35030(10)
C43_32 C 0.65143(9) 0.63296(8) 0.33157(11)
C44_32 C 0.66146(8) 0.60943(8) 0.31481(8)
C45_32 C 0.64396(11) 0.60104(12) 0.28944(11)
H29_32 H 0.6293 0.6095 0.2821
C46_32 C 0.71811(9) 0.62268(12) 0.34134(13)
H30_32 H 0.7315 0.6092 0.3417
H31_32 H 0.7160 0.6291 0.3236
H32_32 H 0.7233 0.6371 0.3527
C47_32 C 0.68938(15) 0.59136(11) 0.37215(8)
H33_32 H 0.6707 0.5883 0.3735
H34_32 H 0.6982 0.5751 0.3678
H35_32 H 0.6959 0.5978 0.3888
C48_32 C 0.65879(13) 0.57387(12) 0.27992(9)
H36_32 H 0.6518 0.5643 0.2658
C49_32 C 0.71275(14) 0.69247(17) 0.46374(10)
C50_32 C 0.70671(10) 0.68343(12) 0.43604(9)
C51_32 C 0.68467(10) 0.68921(11) 0.42845(7)
H37_32 H 0.6722 0.6961 0.4402
C52_32 C 0.67749(8) 0.68508(8) 0.39905(7)
C53_32 C 0.65004(9) 0.69486(10) 0.38761(9)
C54_32 C 0.64970(10) 0.67179(10) 0.36795(8)
C55_32 C 0.66843(11) 0.65143(9) 0.36704(8)
C56_32 C 0.68519(8) 0.66146(8) 0.39057(8)
C57_32 C 0.71056(11) 0.64396(11) 0.39896(12)
H38_32 H 0.7179 0.6293 0.3905
C58_32 C 0.65866(13) 0.71811(9) 0.37732(12)
H39_32 H 0.6583 0.7315 0.3908
H40_32 H 0.6764 0.7160 0.3709
H41_32 H 0.6473 0.7233 0.3629
C59_32 C 0.62785(8) 0.68938(15) 0.40864(11)
H42_32 H 0.6265 0.6707 0.4117
H43_32 H 0.6322 0.6982 0.4249
H44_32 H 0.6112 0.6959 0.4022
C60_32 C 0.72008(9) 0.65879(13) 0.42613(12)
H45_32 H 0.7342 0.6518 0.4357
C61_32 C 0.53626(10) 0.71275(14) 0.30753(17)
C62_32 C 0.56396(9) 0.70671(10) 0.31657(12)
C63_32 C 0.57155(7) 0.68467(10) 0.31079(11)
H46_32 H 0.5598 0.6722 0.3039
C64_32 C 0.60095(7) 0.67749(8) 0.31492(8)
C65_32 C 0.61239(9) 0.65004(9) 0.30514(10)
C66_32 C 0.63205(8) 0.64970(10) 0.32821(10)
C67_32 C 0.63296(8) 0.66843(11) 0.34857(9)
C68_32 C 0.60943(8) 0.68519(8) 0.33854(8)
C69_32 C 0.60104(12) 0.71056(11) 0.35604(11)
H47_32 H 0.6095 0.7179 0.3707
C70_32 C 0.62268(12) 0.65866(13) 0.28189(9)
H48_32 H 0.6092 0.6583 0.2685
H49_32 H 0.6291 0.6764 0.2840
H50_32 H 0.6371 0.6473 0.2767
C71_32 C 0.59136(11) 0.62785(8) 0.31062(15)
H51_32 H 0.5883 0.6265 0.3293
H52_32 H 0.5751 0.6322 0.3018
H53_32 H 0.5978 0.6112 0.3041
C72_32 C 0.57387(12) 0.72008(9) 0.34121(13)
H54_32 H 0.5643 0.7342 0.3482
loop_
_geom_bond_atom_site_label_1
_geom_bond_atom_site_label_2
_geom_bond_site_symmetry_1
_geom_bond_site_symmetry_2
Y1 O1 1_555 1_555
O1 C1 1_555 1_555
O2 C1 1_555 1_555
C1 C2 1_555 1_555
C2 C3 1_555 1_555
C3 H1 1_555 1_555
C4 C3 1_555 1_555
C5 C4 1_555 1_555
C6 C5 1_555 1_555
C7 C6 1_555 1_555
C8 C4 1_555 1_555
C9 C8 1_555 1_555
H2 C9 1_555 1_555
C10 C5 1_555 1_555
H3 C10 1_555 1_555
H4 C10 1_555 1_555
H5 C10 1_555 1_555
C11 C5 1_555 1_555
H6 C11 1_555 1_555
H7 C11 1_555 1_555
H8 C11 1_555 1_555
C12 C2 1_555 1_555
H9 C12 1_555 1_555
O3 C13 1_555 1_555
O4 C13 1_555 1_555
C13 C14 1_555 1_555
C14 C15 1_555 1_555
C15 H10 1_555 1_555
C16 C15 1_555 1_555
C17 C16 1_555 1_555
C18 C17 1_555 1_555
C19 C6 1_555 1_555
C20 C16 1_555 1_555
C21 C20 1_555 1_555
H11 C21 1_555 1_555
C22 C17 1_555 1_555
H12 C22 1_555 1_555
H13 C22 1_555 1_555
H14 C22 1_555 1_555
C23 C17 1_555 1_555
H15 C23 1_555 1_555
H16 C23 1_555 1_555
H17 C23 1_555 1_555
C24 C14 1_555 1_555
H18 C24 1_555 1_555
O5 C25 1_555 1_555
O6 C25 1_555 1_555
C25 C26 1_555 1_555
C26 C27 1_555 1_555
C27 H19 1_555 1_555
C28 C27 1_555 1_555
C29 C28 1_555 1_555
C30 C7 1_555 1_555
C31 C18 1_555 1_555
C32 C28 1_555 1_555
C33 C32 1_555 1_555
H20 C33 1_555 1_555
C34 C29 1_555 1_555
H21 C34 1_555 1_555
H22 C34 1_555 1_555
H23 C34 1_555 1_555
C35 C29 1_555 1_555
H24 C35 1_555 1_555
H25 C35 1_555 1_555
H26 C35 1_555 1_555
C36 C26 1_555 1_555
H27 C36 1_555 1_555
Y2 O6 1_555 1_555
O7 Y2 1_555 1_555
O8 C37 1_555 1_555
C37 O7 1_555 1_555
C38 C37 1_555 1_555
C39 C38 1_555 1_555
H28 C39 1_555 1_555
C40 C39 1_555 1_555
C41 C40 1_555 1_555
C42 C41 1_555 1_555
C43 C42 1_555 1_555
C44 C40 1_555 1_555
C45 C44 1_555 1_555
H29 C45 1_555 1_555
C46 C41 1_555 1_555
H30 C46 1_555 1_555
H31 C46 1_555 1_555
H32 C46 1_555 1_555
C47 C41 1_555 1_555
H33 C47 1_555 1_555
H34 C47 1_555 1_555
H35 C47 1_555 1_555
C48 C38 1_555 1_555
H36 C48 1_555 1_555
O9 C49 1_555 1_555
O10 C49 1_555 1_555
C49 C50 1_555 1_555
C50 C51 1_555 1_555
C51 H37 1_555 1_555
C52 C51 1_555 1_555
C53 C52 1_555 1_555
C54 C53 1_555 1_555
C55 C42 1_555 1_555
C56 C52 1_555 1_555
C57 C56 1_555 1_555
H38 C57 1_555 1_555
C58 C53 1_555 1_555
H39 C58 1_555 1_555
H40 C58 1_555 1_555
H41 C58 1_555 1_555
C59 C53 1_555 1_555
H42 C59 1_555 1_555
H43 C59 1_555 1_555
H44 C59 1_555 1_555
C60 C50 1_555 1_555
H45 C60 1_555 1_555
O11 C61 1_555 1_555
O12 Y1 1_555 1_555
C61 O12 1_555 1_555
C62 C61 1_555 1_555
C63 C62 1_555 1_555
H46 C63 1_555 1_555
C64 C63 1_555 1_555
C65 C64 1_555 1_555
C66 C43 1_555 1_555
C67 C54 1_555 1_555
C68 C64 1_555 1_555
C69 C68 1_555 1_555
H47 C69 1_555 1_555
C70 C65 1_555 1_555
H48 C70 1_555 1_555
H49 C70 1_555 1_555
H50 C70 1_555 1_555
C71 C65 1_555 1_555
H51 C71 1_555 1_555
H52 C71 1_555 1_555
H53 C71 1_555 1_555
C72 C62 1_555 1_555
H54 C72 1_555 1_555
Y3 O8 1_555 1_555
Y4 O3 1_555 1_555
Y5 O9 1_555 1_555
Y6 O2 1_555 1_555
Y7 O5 1_555 1_555
Y8 O4 1_555 1_555
Y9 O10 1_555 1_555
Y10 O11 1_555 1_555
O13 Y3 1_555 1_555
O14 Y1 1_555 1_555
O19 Y1 1_555 1_555
C7 C8 1_555 1_555
C9 C12 1_555 1_555
C18 C19 1_555 1_555
C19 C20 1_555 1_555
C21 C24 1_555 1_555
C29 C30 1_555 1_555
C30 C31 1_555 1_555
C31 C32 1_555 1_555
C33 C36 1_555 1_555
C43 C44 1_555 1_555
C45 C48 1_555 1_555
C54 C55 1_555 1_555
C55 C56 1_555 1_555
C57 C60 1_555 1_555
C65 C66 1_555 1_555
C66 C67 1_555 1_555
C67 C68 1_555 1_555
C69 C72 1_555 1_555
O15 Y2_2 1_555 1_555
O16 Y3_2 1_555 1_555
O17 Y3_2 1_555 1_555
O18 Y2_2 1_555 1_555
Y1_2 O1_2 1_555 1_555
O1_2 C1_2 1_555 1_555
O2_2 C1_2 1_555 1_555
C1_2 C2_2 1_555 1_555
C2_2 C3_2 1_555 1_555
C3_2 H1_2 1_555 1_555
C4_2 C3_2 1_555 1_555
C5_2 C4_2 1_555 1_555
C6_2 C5_2 1_555 1_555
C7_2 C6_2 1_555 1_555
C8_2 C4_2 1_555 1_555
C9_2 C8_2 1_555 1_555
H2_2 C9_2 1_555 1_555
C10_2 C5_2 1_555 1_555
H3_2 C10_2 1_555 1_555
H4_2 C10_2 1_555 1_555
H5_2 C10_2 1_555 1_555
C11_2 C5_2 1_555 1_555
H6_2 C11_2 1_555 1_555
H7_2 C11_2 1_555 1_555
H8_2 C11_2 1_555 1_555
C12_2 C2_2 1_555 1_555
H9_2 C12_2 1_555 1_555
O3_2 C13_2 1_555 1_555
O4_2 C13_2 1_555 1_555
C13_2 C14_2 1_555 1_555
C14_2 C15_2 1_555 1_555
C15_2 H10_2 1_555 1_555
C16_2 C15_2 1_555 1_555
C17_2 C16_2 1_555 1_555
C18_2 C17_2 1_555 1_555
C19_2 C6_2 1_555 1_555
C20_2 C16_2 1_555 1_555
C21_2 C20_2 1_555 1_555
H11_2 C21_2 1_555 1_555
C22_2 C17_2 1_555 1_555
H12_2 C22_2 1_555 1_555
H13_2 C22_2 1_555 1_555
H14_2 C22_2 1_555 1_555
C23_2 C17_2 1_555 1_555
H15_2 C23_2 1_555 1_555
H16_2 C23_2 1_555 1_555
H17_2 C23_2 1_555 1_555
C24_2 C14_2 1_555 1_555
H18_2 C24_2 1_555 1_555
O5_2 C25_2 1_555 1_555
O6_2 C25_2 1_555 1_555
C25_2 C26_2 1_555 1_555
C26_2 C27_2 1_555 1_555
C27_2 H19_2 1_555 1_555
C28_2 C27_2 1_555 1_555
C29_2 C28_2 1_555 1_555
C30_2 C7_2 1_555 1_555
C31_2 C18_2 1_555 1_555
C32_2 C28_2 1_555 1_555
C33_2 C32_2 1_555 1_555
H20_2 C33_2 1_555 1_555
C34_2 C29_2 1_555 1_555
H21_2 C34_2 1_555 1_555
H22_2 C34_2 1_555 1_555
H23_2 C34_2 1_555 1_555
C35_2 C29_2 1_555 1_555
H24_2 C35_2 1_555 1_555
H25_2 C35_2 1_555 1_555
H26_2 C35_2 1_555 1_555
C36_2 C26_2 1_555 1_555
H27_2 C36_2 1_555 1_555
Y2_3 O6_2 1_555 1_555
O7_2 Y2_3 1_555 1_555
O8_2 C37_2 1_555 1_555
C37_2 O7_2 1_555 1_555
C38_2 C37_2 1_555 1_555
C39_2 C38_2 1_555 1_555
H28_2 C39_2 1_555 1_555
C40_2 C39_2 1_555 1_555
C41_2 C40_2 1_555 1_555
C42_2 C41_2 1_555 1_555
C43_2 C42_2 1_555 1_555
C44_2 C40_2 1_555 1_555
C45_2 C44_2 1_555 1_555
H29_2 C45_2 1_555 1_555
C46_2 C41_2 1_555 1_555
H30_2 C46_2 1_555 1_555
H31_2 C46_2 1_555 1_555
H32_2 C46_2 1_555 1_555
C47_2 C41_2 1_555 1_555
H33_2 C47_2 1_555 1_555
H34_2 C47_2 1_555 1_555
H35_2 C47_2 1_555 1_555
C48_2 C38_2 1_555 1_555
H36_2 C48_2 1_555 1_555
O9_2 C49_2 1_555 1_555
O10_2 C49_2 1_555 1_555
C49_2 C50_2 1_555 1_555
C50_2 C51_2 1_555 1_555
C51_2 H37_2 1_555 1_555
C52_2 C51_2 1_555 1_555
C53_2 C52_2 1_555 1_555
C54_2 C53_2 1_555 1_555
C55_2 C42_2 1_555 1_555
C56_2 C52_2 1_555 1_555
C57_2 C56_2 1_555 1_555
H38_2 C57_2 1_555 1_555
C58_2 C53_2 1_555 1_555
H39_2 C58_2 1_555 1_555
H40_2 C58_2 1_555 1_555
H41_2 C58_2 1_555 1_555
C59_2 C53_2 1_555 1_555
H42_2 C59_2 1_555 1_555
H43_2 C59_2 1_555 1_555
H44_2 C59_2 1_555 1_555
C60_2 C50_2 1_555 1_555
H45_2 C60_2 1_555 1_555
O11_2 C61_2 1_555 1_555
O12_2 Y1_2 1_555 1_555
C61_2 O12_2 1_555 1_555
C62_2 C61_2 1_555 1_555
C63_2 C62_2 1_555 1_555
H46_2 C63_2 1_555 1_555
C64_2 C63_2 1_555 1_555
C65_2 C64_2 1_555 1_555
C66_2 C43_2 1_555 1_555
C67_2 C54_2 1_555 1_555
C68_2 C64_2 1_555 1_555
C69_2 C68_2 1_555 1_555
H47_2 C69_2 1_555 1_555
C70_2 C65_2 1_555 1_555
H48_2 C70_2 1_555 1_555
H49_2 C70_2 1_555 1_555
H50_2 C70_2 1_555 1_555
C71_2 C65_2 1_555 1_555
H51_2 C71_2 1_555 1_555
H52_2 C71_2 1_555 1_555
H53_2 C71_2 1_555 1_555
C72_2 C62_2 1_555 1_555
H54_2 C72_2 1_555 1_555
Y3_3 O8_2 1_555 1_555
Y4_2 O3_2 1_555 1_555
Y5_4 O9_2 1_555 1_555
Y6_2 O2_2 1_555 1_555
Y7_3 O5_2 1_555 1_555
Y8_2 O4_2 1_555 1_555
Y9_4 O10_2 1_555 1_555
Y10_2 O11_2 1_555 1_555
O13_2 Y3_3 1_555 1_555
O14_2 Y1_2 1_555 1_555
O19_2 Y1_2 1_555 1_555
C7_2 C8_2 1_555 1_555
C9_2 C12_2 1_555 1_555
C18_2 C19_2 1_555 1_555
C19_2 C20_2 1_555 1_555
C21_2 C24_2 1_555 1_555
C29_2 C30_2 1_555 1_555
C30_2 C31_2 1_555 1_555
C31_2 C32_2 1_555 1_555
C33_2 C36_2 1_555 1_555
C43_2 C44_2 1_555 1_555
C45_2 C48_2 1_555 1_555
C54_2 C55_2 1_555 1_555
C55_2 C56_2 1_555 1_555
C57_2 C60_2 1_555 1_555
C65_2 C66_2 1_555 1_555
C66_2 C67_2 1_555 1_555
C67_2 C68_2 1_555 1_555
C69_2 C72_2 1_555 1_555
O15_2 Y2_4 1_555 1_555
O16_2 Y3_4 1_555 1_555
O17_2 Y3_4 1_555 1_555
O18_2 Y2_4 1_555 1_555
O15_3 Y2_5 1_555 1_555
O16_3 Y3_5 1_555 1_555
O17_3 Y3_5 1_555 1_555
O18_3 Y2_5 1_555 1_555
Y1_3 O1_3 1_555 1_555
O1_3 C1_3 1_555 1_555
O2_3 C1_3 1_555 1_555
C1_3 C2_3 1_555 1_555
C2_3 C3_3 1_555 1_555
C3_3 H1_3 1_555 1_555
C4_3 C3_3 1_555 1_555
C5_3 C4_3 1_555 1_555
C6_3 C5_3 1_555 1_555
C7_3 C6_3 1_555 1_555
C8_3 C4_3 1_555 1_555
C9_3 C8_3 1_555 1_555
H2_3 C9_3 1_555 1_555
C10_3 C5_3 1_555 1_555
H3_3 C10_3 1_555 1_555
H4_3 C10_3 1_555 1_555
H5_3 C10_3 1_555 1_555
C11_3 C5_3 1_555 1_555
H6_3 C11_3 1_555 1_555
H7_3 C11_3 1_555 1_555
H8_3 C11_3 1_555 1_555
C12_3 C2_3 1_555 1_555
H9_3 C12_3 1_555 1_555
O3_3 C13_3 1_555 1_555
O4_3 C13_3 1_555 1_555
C13_3 C14_3 1_555 1_555
C14_3 C15_3 1_555 1_555
C15_3 H10_3 1_555 1_555
C16_3 C15_3 1_555 1_555
C17_3 C16_3 1_555 1_555
C18_3 C17_3 1_555 1_555
C19_3 C6_3 1_555 1_555
C20_3 C16_3 1_555 1_555
C21_3 C20_3 1_555 1_555
H11_3 C21_3 1_555 1_555
C22_3 C17_3 1_555 1_555
H12_3 C22_3 1_555 1_555
H13_3 C22_3 1_555 1_555
H14_3 C22_3 1_555 1_555
C23_3 C17_3 1_555 1_555
H15_3 C23_3 1_555 1_555
H16_3 C23_3 1_555 1_555
H17_3 C23_3 1_555 1_555
C24_3 C14_3 1_555 1_555
H18_3 C24_3 1_555 1_555
O5_3 C25_3 1_555 1_555
O6_3 C25_3 1_555 1_555
C25_3 C26_3 1_555 1_555
C26_3 C27_3 1_555 1_555
C27_3 H19_3 1_555 1_555
C28_3 C27_3 1_555 1_555
C29_3 C28_3 1_555 1_555
C30_3 C7_3 1_555 1_555
C31_3 C18_3 1_555 1_555
C32_3 C28_3 1_555 1_555
C33_3 C32_3 1_555 1_555
H20_3 C33_3 1_555 1_555
C34_3 C29_3 1_555 1_555
H21_3 C34_3 1_555 1_555
H22_3 C34_3 1_555 1_555
H23_3 C34_3 1_555 1_555
C35_3 C29_3 1_555 1_555
H24_3 C35_3 1_555 1_555
H25_3 C35_3 1_555 1_555
H26_3 C35_3 1_555 1_555
C36_3 C26_3 1_555 1_555
H27_3 C36_3 1_555 1_555
Y2_6 O6_3 1_555 1_555
O7_3 Y2_6 1_555 1_555
O8_3 C37_3 1_555 1_555
C37_3 O7_3 1_555 1_555
C38_3 C37_3 1_555 1_555
C39_3 C38_3 1_555 1_555
H28_3 C39_3 1_555 1_555
C40_3 C39_3 1_555 1_555
C41_3 C40_3 1_555 1_555
C42_3 C41_3 1_555 1_555
C43_3 C42_3 1_555 1_555
C44_3 C40_3 1_555 1_555
C45_3 C44_3 1_555 1_555
H29_3 C45_3 1_555 1_555
C46_3 C41_3 1_555 1_555
H30_3 C46_3 1_555 1_555
H31_3 C46_3 1_555 1_555
H32_3 C46_3 1_555 1_555
C47_3 C41_3 1_555 1_555
H33_3 C47_3 1_555 1_555
H34_3 C47_3 1_555 1_555
H35_3 C47_3 1_555 1_555
C48_3 C38_3 1_555 1_555
H36_3 C48_3 1_555 1_555
O9_3 C49_3 1_555 1_555
O10_3 C49_3 1_555 1_555
C49_3 C50_3 1_555 1_555
C50_3 C51_3 1_555 1_555
C51_3 H37_3 1_555 1_555
C52_3 C51_3 1_555 1_555
C53_3 C52_3 1_555 1_555
C54_3 C53_3 1_555 1_555
C55_3 C42_3 1_555 1_555
C56_3 C52_3 1_555 1_555
C57_3 C56_3 1_555 1_555
H38_3 C57_3 1_555 1_555
C58_3 C53_3 1_555 1_555
H39_3 C58_3 1_555 1_555
H40_3 C58_3 1_555 1_555
H41_3 C58_3 1_555 1_555
C59_3 C53_3 1_555 1_555
H42_3 C59_3 1_555 1_555
H43_3 C59_3 1_555 1_555
H44_3 C59_3 1_555 1_555
C60_3 C50_3 1_555 1_555
H45_3 C60_3 1_555 1_555
O11_3 C61_3 1_555 1_555
O12_3 Y1_3 1_555 1_555
C61_3 O12_3 1_555 1_555
C62_3 C61_3 1_555 1_555
C63_3 C62_3 1_555 1_555
H46_3 C63_3 1_555 1_555
C64_3 C63_3 1_555 1_555
C65_3 C64_3 1_555 1_555
C66_3 C43_3 1_555 1_555
C67_3 C54_3 1_555 1_555
C68_3 C64_3 1_555 1_555
C69_3 C68_3 1_555 1_555
H47_3 C69_3 1_555 1_555
C70_3 C65_3 1_555 1_555
H48_3 C70_3 1_555 1_555
H49_3 C70_3 1_555 1_555
H50_3 C70_3 1_555 1_555
C71_3 C65_3 1_555 1_555
H51_3 C71_3 1_555 1_555
H52_3 C71_3 1_555 1_555
H53_3 C71_3 1_555 1_555
C72_3 C62_3 1_555 1_555
H54_3 C72_3 1_555 1_555
Y3_6 O8_3 1_555 1_555
Y4_3 O3_3 1_555 1_555
Y5_6 O9_3 1_555 1_555
Y6_3 O2_3 1_555 1_555
Y7_6 O5_3 1_555 1_555
Y8_3 O4_3 1_555 1_555
Y9_6 O10_3 1_555 1_555
Y10_3 O11_3 1_555 1_555
O13_3 Y3_6 1_555 1_555
O14_3 Y1_3 1_555 1_555
O19_3 Y1_3 1_555 1_555
C7_3 C8_3 1_555 1_555
C9_3 C12_3 1_555 1_555
C18_3 C19_3 1_555 1_555
C19_3 C20_3 1_555 1_555
C21_3 C24_3 1_555 1_555
C29_3 C30_3 1_555 1_555
C30_3 C31_3 1_555 1_555
C31_3 C32_3 1_555 1_555
C33_3 C36_3 1_555 1_555
C43_3 C44_3 1_555 1_555
C45_3 C48_3 1_555 1_555
C54_3 C55_3 1_555 1_555
C55_3 C56_3 1_555 1_555
C57_3 C60_3 1_555 1_555
C65_3 C66_3 1_555 1_555
C66_3 C67_3 1_555 1_555
C67_3 C68_3 1_555 1_555
C69_3 C72_3 1_555 1_555
O15_4 Y2_7 1_555 1_555
O16_4 Y3_7 1_555 1_555
O17_4 Y3_7 1_555 1_555
O18_4 Y2_7 1_555 1_555
Y1_4 O1_4 1_555 1_555
O1_4 C1_4 1_555 1_555
O2_4 C1_4 1_555 1_555
C1_4 C2_4 1_555 1_555
C2_4 C3_4 1_555 1_555
C3_4 H1_4 1_555 1_555
C4_4 C3_4 1_555 1_555
C5_4 C4_4 1_555 1_555
C6_4 C5_4 1_555 1_555
C7_4 C6_4 1_555 1_555
C8_4 C4_4 1_555 1_555
C9_4 C8_4 1_555 1_555
H2_4 C9_4 1_555 1_555
C10_4 C5_4 1_555 1_555
H3_4 C10_4 1_555 1_555
H4_4 C10_4 1_555 1_555
H5_4 C10_4 1_555 1_555
C11_4 C5_4 1_555 1_555
H6_4 C11_4 1_555 1_555
H7_4 C11_4 1_555 1_555
H8_4 C11_4 1_555 1_555
C12_4 C2_4 1_555 1_555
H9_4 C12_4 1_555 1_555
O3_4 C13_4 1_555 1_555
O4_4 C13_4 1_555 1_555
C13_4 C14_4 1_555 1_555
C14_4 C15_4 1_555 1_555
C15_4 H10_4 1_555 1_555
C16_4 C15_4 1_555 1_555
C17_4 C16_4 1_555 1_555
C18_4 C17_4 1_555 1_555
C19_4 C6_4 1_555 1_555
C20_4 C16_4 1_555 1_555
C21_4 C20_4 1_555 1_555
H11_4 C21_4 1_555 1_555
C22_4 C17_4 1_555 1_555
H12_4 C22_4 1_555 1_555
H13_4 C22_4 1_555 1_555
H14_4 C22_4 1_555 1_555
C23_4 C17_4 1_555 1_555
H15_4 C23_4 1_555 1_555
H16_4 C23_4 1_555 1_555
H17_4 C23_4 1_555 1_555
C24_4 C14_4 1_555 1_555
H18_4 C24_4 1_555 1_555
O5_4 C25_4 1_555 1_555
O6_4 C25_4 1_555 1_555
C25_4 C26_4 1_555 1_555
C26_4 C27_4 1_555 1_555
C27_4 H19_4 1_555 1_555
C28_4 C27_4 1_555 1_555
C29_4 C28_4 1_555 1_555
C30_4 C7_4 1_555 1_555
C31_4 C18_4 1_555 1_555
C32_4 C28_4 1_555 1_555
C33_4 C32_4 1_555 1_555
H20_4 C33_4 1_555 1_555
C34_4 C29_4 1_555 1_555
H21_4 C34_4 1_555 1_555
H22_4 C34_4 1_555 1_555
H23_4 C34_4 1_555 1_555
C35_4 C29_4 1_555 1_555
H24_4 C35_4 1_555 1_555
H25_4 C35_4 1_555 1_555
H26_4 C35_4 1_555 1_555
C36_4 C26_4 1_555 1_555
H27_4 C36_4 1_555 1_555
Y2_8 O6_4 1_555 1_555
O7_4 Y2_8 1_555 1_555
O8_4 C37_4 1_555 1_555
C37_4 O7_4 1_555 1_555
C38_4 C37_4 1_555 1_555
C39_4 C38_4 1_555 1_555
H28_4 C39_4 1_555 1_555
C40_4 C39_4 1_555 1_555
C41_4 C40_4 1_555 1_555
C42_4 C41_4 1_555 1_555
C43_4 C42_4 1_555 1_555
C44_4 C40_4 1_555 1_555
C45_4 C44_4 1_555 1_555
H29_4 C45_4 1_555 1_555
C46_4 C41_4 1_555 1_555
H30_4 C46_4 1_555 1_555
H31_4 C46_4 1_555 1_555
H32_4 C46_4 1_555 1_555
C47_4 C41_4 1_555 1_555
H33_4 C47_4 1_555 1_555
H34_4 C47_4 1_555 1_555
H35_4 C47_4 1_555 1_555
C48_4 C38_4 1_555 1_555
H36_4 C48_4 1_555 1_555
O9_4 C49_4 1_555 1_555
O10_4 C49_4 1_555 1_555
C49_4 C50_4 1_555 1_555
C50_4 C51_4 1_555 1_555
C51_4 H37_4 1_555 1_555
C52_4 C51_4 1_555 1_555
C53_4 C52_4 1_555 1_555
C54_4 C53_4 1_555 1_555
C55_4 C42_4 1_555 1_555
C56_4 C52_4 1_555 1_555
C57_4 C56_4 1_555 1_555
H38_4 C57_4 1_555 1_555
C58_4 C53_4 1_555 1_555
H39_4 C58_4 1_555 1_555
H40_4 C58_4 1_555 1_555
H41_4 C58_4 1_555 1_555
C59_4 C53_4 1_555 1_555
H42_4 C59_4 1_555 1_555
H43_4 C59_4 1_555 1_555
H44_4 C59_4 1_555 1_555
C60_4 C50_4 1_555 1_555
H45_4 C60_4 1_555 1_555
O11_4 C61_4 1_555 1_555
O12_4 Y1_4 1_555 1_555
C61_4 O12_4 1_555 1_555
C62_4 C61_4 1_555 1_555
C63_4 C62_4 1_555 1_555
H46_4 C63_4 1_555 1_555
C64_4 C63_4 1_555 1_555
C65_4 C64_4 1_555 1_555
C66_4 C43_4 1_555 1_555
C67_4 C54_4 1_555 1_555
C68_4 C64_4 1_555 1_555
C69_4 C68_4 1_555 1_555
H47_4 C69_4 1_555 1_555
C70_4 C65_4 1_555 1_555
H48_4 C70_4 1_555 1_555
H49_4 C70_4 1_555 1_555
H50_4 C70_4 1_555 1_555
C71_4 C65_4 1_555 1_555
H51_4 C71_4 1_555 1_555
H52_4 C71_4 1_555 1_555
H53_4 C71_4 1_555 1_555
C72_4 C62_4 1_555 1_555
H54_4 C72_4 1_555 1_555
Y3_8 O8_4 1_555 1_555
Y4_4 O3_4 1_555 1_555
Y5_7 O9_4 1_555 1_555
Y6_4 O2_4 1_555 1_555
Y7_8 O5_4 1_555 1_555
Y8_4 O4_4 1_555 1_555
Y9_7 O10_4 1_555 1_555
Y10_4 O11_4 1_555 1_555
O13_4 Y3_8 1_555 1_555
O14_4 Y1_4 1_555 1_555
O19_4 Y1_4 1_555 1_555
C7_4 C8_4 1_555 1_555
C9_4 C12_4 1_555 1_555
C18_4 C19_4 1_555 1_555
C19_4 C20_4 1_555 1_555
C21_4 C24_4 1_555 1_555
C29_4 C30_4 1_555 1_555
C30_4 C31_4 1_555 1_555
C31_4 C32_4 1_555 1_555
C33_4 C36_4 1_555 1_555
C43_4 C44_4 1_555 1_555
C45_4 C48_4 1_555 1_555
C54_4 C55_4 1_555 1_555
C55_4 C56_4 1_555 1_555
C57_4 C60_4 1_555 1_555
C65_4 C66_4 1_555 1_555
C66_4 C67_4 1_555 1_555
C67_4 C68_4 1_555 1_555
C69_4 C72_4 1_555 1_555
Y1_5 O1_5 1_555 1_555
O1_5 C1_5 1_555 1_555
O2_5 C1_5 1_555 1_555
C1_5 C2_5 1_555 1_555
C2_5 C3_5 1_555 1_555
C3_5 H1_5 1_555 1_555
C4_5 C3_5 1_555 1_555
C5_5 C4_5 1_555 1_555
C6_5 C5_5 1_555 1_555
C7_5 C6_5 1_555 1_555
C8_5 C4_5 1_555 1_555
C9_5 C8_5 1_555 1_555
H2_5 C9_5 1_555 1_555
C10_5 C5_5 1_555 1_555
H3_5 C10_5 1_555 1_555
H4_5 C10_5 1_555 1_555
H5_5 C10_5 1_555 1_555
C11_5 C5_5 1_555 1_555
H6_5 C11_5 1_555 1_555
H7_5 C11_5 1_555 1_555
H8_5 C11_5 1_555 1_555
C12_5 C2_5 1_555 1_555
H9_5 C12_5 1_555 1_555
O3_5 C13_5 1_555 1_555
O4_5 C13_5 1_555 1_555
C13_5 C14_5 1_555 1_555
C14_5 C15_5 1_555 1_555
C15_5 H10_5 1_555 1_555
C16_5 C15_5 1_555 1_555
C17_5 C16_5 1_555 1_555
C18_5 C17_5 1_555 1_555
C19_5 C6_5 1_555 1_555
C20_5 C16_5 1_555 1_555
C21_5 C20_5 1_555 1_555
H11_5 C21_5 1_555 1_555
C22_5 C17_5 1_555 1_555
H12_5 C22_5 1_555 1_555
H13_5 C22_5 1_555 1_555
H14_5 C22_5 1_555 1_555
C23_5 C17_5 1_555 1_555
H15_5 C23_5 1_555 1_555
H16_5 C23_5 1_555 1_555
H17_5 C23_5 1_555 1_555
C24_5 C14_5 1_555 1_555
H18_5 C24_5 1_555 1_555
O5_5 C25_5 1_555 1_555
O6_5 C25_5 1_555 1_555
C25_5 C26_5 1_555 1_555
C26_5 C27_5 1_555 1_555
C27_5 H19_5 1_555 1_555
C28_5 C27_5 1_555 1_555
C29_5 C28_5 1_555 1_555
C30_5 C7_5 1_555 1_555
C31_5 C18_5 1_555 1_555
C32_5 C28_5 1_555 1_555
C33_5 C32_5 1_555 1_555
H20_5 C33_5 1_555 1_555
C34_5 C29_5 1_555 1_555
H21_5 C34_5 1_555 1_555
H22_5 C34_5 1_555 1_555
H23_5 C34_5 1_555 1_555
C35_5 C29_5 1_555 1_555
H24_5 C35_5 1_555 1_555
H25_5 C35_5 1_555 1_555
H26_5 C35_5 1_555 1_555
C36_5 C26_5 1_555 1_555
H27_5 C36_5 1_555 1_555
Y2_9 O6_5 1_555 1_555
O7_5 Y2_9 1_555 1_555
O8_5 C37_5 1_555 1_555
C37_5 O7_5 1_555 1_555
C38_5 C37_5 1_555 1_555
C39_5 C38_5 1_555 1_555
H28_5 C39_5 1_555 1_555
C40_5 C39_5 1_555 1_555
C41_5 C40_5 1_555 1_555
C42_5 C41_5 1_555 1_555
C43_5 C42_5 1_555 1_555
C44_5 C40_5 1_555 1_555
C45_5 C44_5 1_555 1_555
H29_5 C45_5 1_555 1_555
C46_5 C41_5 1_555 1_555
H30_5 C46_5 1_555 1_555
H31_5 C46_5 1_555 1_555
H32_5 C46_5 1_555 1_555
C47_5 C41_5 1_555 1_555
H33_5 C47_5 1_555 1_555
H34_5 C47_5 1_555 1_555
H35_5 C47_5 1_555 1_555
C48_5 C38_5 1_555 1_555
H36_5 C48_5 1_555 1_555
O9_5 C49_5 1_555 1_555
O10_5 C49_5 1_555 1_555
C49_5 C50_5 1_555 1_555
C50_5 C51_5 1_555 1_555
C51_5 H37_5 1_555 1_555
C52_5 C51_5 1_555 1_555
C53_5 C52_5 1_555 1_555
C54_5 C53_5 1_555 1_555
C55_5 C42_5 1_555 1_555
C56_5 C52_5 1_555 1_555
C57_5 C56_5 1_555 1_555
H38_5 C57_5 1_555 1_555
C58_5 C53_5 1_555 1_555
H39_5 C58_5 1_555 1_555
H40_5 C58_5 1_555 1_555
H41_5 C58_5 1_555 1_555
C59_5 C53_5 1_555 1_555
H42_5 C59_5 1_555 1_555
H43_5 C59_5 1_555 1_555
H44_5 C59_5 1_555 1_555
C60_5 C50_5 1_555 1_555
H45_5 C60_5 1_555 1_555
O11_5 C61_5 1_555 1_555
O12_5 Y1_5 1_555 1_555
C61_5 O12_5 1_555 1_555
C62_5 C61_5 1_555 1_555
C63_5 C62_5 1_555 1_555
H46_5 C63_5 1_555 1_555
C64_5 C63_5 1_555 1_555
C65_5 C64_5 1_555 1_555
C66_5 C43_5 1_555 1_555
C67_5 C54_5 1_555 1_555
C68_5 C64_5 1_555 1_555
C69_5 C68_5 1_555 1_555
H47_5 C69_5 1_555 1_555
C70_5 C65_5 1_555 1_555
H48_5 C70_5 1_555 1_555
H49_5 C70_5 1_555 1_555
H50_5 C70_5 1_555 1_555
C71_5 C65_5 1_555 1_555
H51_5 C71_5 1_555 1_555
H52_5 C71_5 1_555 1_555
H53_5 C71_5 1_555 1_555
C72_5 C62_5 1_555 1_555
H54_5 C72_5 1_555 1_555
Y3_9 O8_5 1_555 1_555
Y4_5 O3_5 1_555 1_555
Y5_9 O9_5 1_555 1_555
Y6_5 O2_5 1_555 1_555
Y9_7 O5_5 1_555 1_555
Y10_4 O4_5 1_555 1_555
Y9_9 O10_5 1_555 1_555
Y10_5 O11_5 1_555 1_555
O13_5 Y3_9 1_555 1_555
O14_5 Y1_5 1_555 1_555
O19_5 Y1_5 1_555 1_555
C7_5 C8_5 1_555 1_555
C9_5 C12_5 1_555 1_555
C18_5 C19_5 1_555 1_555
C19_5 C20_5 1_555 1_555
C21_5 C24_5 1_555 1_555
C29_5 C30_5 1_555 1_555
C30_5 C31_5 1_555 1_555
C31_5 C32_5 1_555 1_555
C33_5 C36_5 1_555 1_555
C43_5 C44_5 1_555 1_555
C45_5 C48_5 1_555 1_555
C54_5 C55_5 1_555 1_555
C55_5 C56_5 1_555 1_555
C57_5 C60_5 1_555 1_555
C65_5 C66_5 1_555 1_555
C66_5 C67_5 1_555 1_555
C67_5 C68_5 1_555 1_555
C69_5 C72_5 1_555 1_555
O15_5 Y2_10 1_555 1_555
O16_5 Y3_10 1_555 1_555
O17_5 Y3_10 1_555 1_555
O18_5 Y2_10 1_555 1_555
Y1_6 O1_6 1_555 1_555
O1_6 C1_6 1_555 1_555
O2_6 C1_6 1_555 1_555
C1_6 C2_6 1_555 1_555
C2_6 C3_6 1_555 1_555
C3_6 H1_6 1_555 1_555
C4_6 C3_6 1_555 1_555
C5_6 C4_6 1_555 1_555
C6_6 C5_6 1_555 1_555
C7_6 C6_6 1_555 1_555
C8_6 C4_6 1_555 1_555
C9_6 C8_6 1_555 1_555
H2_6 C9_6 1_555 1_555
C10_6 C5_6 1_555 1_555
H3_6 C10_6 1_555 1_555
H4_6 C10_6 1_555 1_555
H5_6 C10_6 1_555 1_555
C11_6 C5_6 1_555 1_555
H6_6 C11_6 1_555 1_555
H7_6 C11_6 1_555 1_555
H8_6 C11_6 1_555 1_555
C12_6 C2_6 1_555 1_555
H9_6 C12_6 1_555 1_555
O3_6 C13_6 1_555 1_555
O4_6 C13_6 1_555 1_555
C13_6 C14_6 1_555 1_555
C14_6 C15_6 1_555 1_555
C15_6 H10_6 1_555 1_555
C16_6 C15_6 1_555 1_555
C17_6 C16_6 1_555 1_555
C18_6 C17_6 1_555 1_555
C19_6 C6_6 1_555 1_555
C20_6 C16_6 1_555 1_555
C21_6 C20_6 1_555 1_555
H11_6 C21_6 1_555 1_555
C22_6 C17_6 1_555 1_555
H12_6 C22_6 1_555 1_555
H13_6 C22_6 1_555 1_555
H14_6 C22_6 1_555 1_555
C23_6 C17_6 1_555 1_555
H15_6 C23_6 1_555 1_555
H16_6 C23_6 1_555 1_555
H17_6 C23_6 1_555 1_555
C24_6 C14_6 1_555 1_555
H18_6 C24_6 1_555 1_555
O5_6 C25_6 1_555 1_555
O6_6 C25_6 1_555 1_555
C25_6 C26_6 1_555 1_555
C26_6 C27_6 1_555 1_555
C27_6 H19_6 1_555 1_555
C28_6 C27_6 1_555 1_555
C29_6 C28_6 1_555 1_555
C30_6 C7_6 1_555 1_555
C31_6 C18_6 1_555 1_555
C32_6 C28_6 1_555 1_555
C33_6 C32_6 1_555 1_555
H20_6 C33_6 1_555 1_555
C34_6 C29_6 1_555 1_555
H21_6 C34_6 1_555 1_555
H22_6 C34_6 1_555 1_555
H23_6 C34_6 1_555 1_555
C35_6 C29_6 1_555 1_555
H24_6 C35_6 1_555 1_555
H25_6 C35_6 1_555 1_555
H26_6 C35_6 1_555 1_555
C36_6 C26_6 1_555 1_555
H27_6 C36_6 1_555 1_555
Y2_11 O6_6 1_555 1_555
O7_6 Y2_11 1_555 1_555
O8_6 C37_6 1_555 1_555
C37_6 O7_6 1_555 1_555
C38_6 C37_6 1_555 1_555
C39_6 C38_6 1_555 1_555
H28_6 C39_6 1_555 1_555
C40_6 C39_6 1_555 1_555
C41_6 C40_6 1_555 1_555
C42_6 C41_6 1_555 1_555
C43_6 C42_6 1_555 1_555
C44_6 C40_6 1_555 1_555
C45_6 C44_6 1_555 1_555
H29_6 C45_6 1_555 1_555
C46_6 C41_6 1_555 1_555
H30_6 C46_6 1_555 1_555
H31_6 C46_6 1_555 1_555
H32_6 C46_6 1_555 1_555
C47_6 C41_6 1_555 1_555
H33_6 C47_6 1_555 1_555
H34_6 C47_6 1_555 1_555
H35_6 C47_6 1_555 1_555
C48_6 C38_6 1_555 1_555
H36_6 C48_6 1_555 1_555
O9_6 C49_6 1_555 1_555
O10_6 C49_6 1_555 1_555
C49_6 C50_6 1_555 1_555
C50_6 C51_6 1_555 1_555
C51_6 H37_6 1_555 1_555
C52_6 C51_6 1_555 1_555
C53_6 C52_6 1_555 1_555
C54_6 C53_6 1_555 1_555
C55_6 C42_6 1_555 1_555
C56_6 C52_6 1_555 1_555
C57_6 C56_6 1_555 1_555
H38_6 C57_6 1_555 1_555
C58_6 C53_6 1_555 1_555
H39_6 C58_6 1_555 1_555
H40_6 C58_6 1_555 1_555
H41_6 C58_6 1_555 1_555
C59_6 C53_6 1_555 1_555
H42_6 C59_6 1_555 1_555
H43_6 C59_6 1_555 1_555
H44_6 C59_6 1_555 1_555
C60_6 C50_6 1_555 1_555
H45_6 C60_6 1_555 1_555
O11_6 C61_6 1_555 1_555
O12_6 Y1_6 1_555 1_555
C61_6 O12_6 1_555 1_555
C62_6 C61_6 1_555 1_555
C63_6 C62_6 1_555 1_555
H46_6 C63_6 1_555 1_555
C64_6 C63_6 1_555 1_555
C65_6 C64_6 1_555 1_555
C66_6 C43_6 1_555 1_555
C67_6 C54_6 1_555 1_555
C68_6 C64_6 1_555 1_555
C69_6 C68_6 1_555 1_555
H47_6 C69_6 1_555 1_555
C70_6 C65_6 1_555 1_555
H48_6 C70_6 1_555 1_555
H49_6 C70_6 1_555 1_555
H50_6 C70_6 1_555 1_555
C71_6 C65_6 1_555 1_555
H51_6 C71_6 1_555 1_555
H52_6 C71_6 1_555 1_555
H53_6 C71_6 1_555 1_555
C72_6 C62_6 1_555 1_555
H54_6 C72_6 1_555 1_555
Y3_11 O8_6 1_555 1_555
Y4_6 O3_6 1_555 1_555
Y5_12 O9_6 1_555 1_555
Y6_6 O2_6 1_555 1_555
Y9 O5_6 1_555 1_555
Y10 O4_6 1_555 1_555
Y9_12 O10_6 1_555 1_555
Y10_6 O11_6 1_555 1_555
O13_6 Y3_11 1_555 1_555
O14_6 Y1_6 1_555 1_555
O19_6 Y1_6 1_555 1_555
C7_6 C8_6 1_555 1_555
C9_6 C12_6 1_555 1_555
C18_6 C19_6 1_555 1_555
C19_6 C20_6 1_555 1_555
C21_6 C24_6 1_555 1_555
C29_6 C30_6 1_555 1_555
C30_6 C31_6 1_555 1_555
C31_6 C32_6 1_555 1_555
C33_6 C36_6 1_555 1_555
C43_6 C44_6 1_555 1_555
C45_6 C48_6 1_555 1_555
C54_6 C55_6 1_555 1_555
C55_6 C56_6 1_555 1_555
C57_6 C60_6 1_555 1_555
C65_6 C66_6 1_555 1_555
C66_6 C67_6 1_555 1_555
C67_6 C68_6 1_555 1_555
C69_6 C72_6 1_555 1_555
O15_6 Y2_12 1_555 1_555
O16_6 Y3_12 1_555 1_555
O17_6 Y3_12 1_555 1_555
O18_6 Y2_12 1_555 1_555
O15_7 Y2_13 1_555 1_555
O16_7 Y3_13 1_555 1_555
O17_7 Y3_13 1_555 1_555
O18_7 Y2_13 1_555 1_555
Y1_7 O1_7 1_555 1_555
O1_7 C1_7 1_555 1_555
O2_7 C1_7 1_555 1_555
C1_7 C2_7 1_555 1_555
C2_7 C3_7 1_555 1_555
C3_7 H1_7 1_555 1_555
C4_7 C3_7 1_555 1_555
C5_7 C4_7 1_555 1_555
C6_7 C5_7 1_555 1_555
C7_7 C6_7 1_555 1_555
C8_7 C4_7 1_555 1_555
C9_7 C8_7 1_555 1_555
H2_7 C9_7 1_555 1_555
C10_7 C5_7 1_555 1_555
H3_7 C10_7 1_555 1_555
H4_7 C10_7 1_555 1_555
H5_7 C10_7 1_555 1_555
C11_7 C5_7 1_555 1_555
H6_7 C11_7 1_555 1_555
H7_7 C11_7 1_555 1_555
H8_7 C11_7 1_555 1_555
C12_7 C2_7 1_555 1_555
H9_7 C12_7 1_555 1_555
O3_7 C13_7 1_555 1_555
O4_7 C13_7 1_555 1_555
C13_7 C14_7 1_555 1_555
C14_7 C15_7 1_555 1_555
C15_7 H10_7 1_555 1_555
C16_7 C15_7 1_555 1_555
C17_7 C16_7 1_555 1_555
C18_7 C17_7 1_555 1_555
C19_7 C6_7 1_555 1_555
C20_7 C16_7 1_555 1_555
C21_7 C20_7 1_555 1_555
H11_7 C21_7 1_555 1_555
C22_7 C17_7 1_555 1_555
H12_7 C22_7 1_555 1_555
H13_7 C22_7 1_555 1_555
H14_7 C22_7 1_555 1_555
C23_7 C17_7 1_555 1_555
H15_7 C23_7 1_555 1_555
H16_7 C23_7 1_555 1_555
H17_7 C23_7 1_555 1_555
C24_7 C14_7 1_555 1_555
H18_7 C24_7 1_555 1_555
O5_7 C25_7 1_555 1_555
O6_7 C25_7 1_555 1_555
C25_7 C26_7 1_555 1_555
C26_7 C27_7 1_555 1_555
C27_7 H19_7 1_555 1_555
C28_7 C27_7 1_555 1_555
C29_7 C28_7 1_555 1_555
C30_7 C7_7 1_555 1_555
C31_7 C18_7 1_555 1_555
C32_7 C28_7 1_555 1_555
C33_7 C32_7 1_555 1_555
H20_7 C33_7 1_555 1_555
C34_7 C29_7 1_555 1_555
H21_7 C34_7 1_555 1_555
H22_7 C34_7 1_555 1_555
H23_7 C34_7 1_555 1_555
C35_7 C29_7 1_555 1_555
H24_7 C35_7 1_555 1_555
H25_7 C35_7 1_555 1_555
H26_7 C35_7 1_555 1_555
C36_7 C26_7 1_555 1_555
H27_7 C36_7 1_555 1_555
Y2_14 O6_7 1_555 1_555
O7_7 Y2_14 1_555 1_555
O8_7 C37_7 1_555 1_555
C37_7 O7_7 1_555 1_555
C38_7 C37_7 1_555 1_555
C39_7 C38_7 1_555 1_555
H28_7 C39_7 1_555 1_555
C40_7 C39_7 1_555 1_555
C41_7 C40_7 1_555 1_555
C42_7 C41_7 1_555 1_555
C43_7 C42_7 1_555 1_555
C44_7 C40_7 1_555 1_555
C45_7 C44_7 1_555 1_555
H29_7 C45_7 1_555 1_555
C46_7 C41_7 1_555 1_555
H30_7 C46_7 1_555 1_555
H31_7 C46_7 1_555 1_555
H32_7 C46_7 1_555 1_555
C47_7 C41_7 1_555 1_555
H33_7 C47_7 1_555 1_555
H34_7 C47_7 1_555 1_555
H35_7 C47_7 1_555 1_555
C48_7 C38_7 1_555 1_555
H36_7 C48_7 1_555 1_555
O9_7 C49_7 1_555 1_555
O10_7 C49_7 1_555 1_555
C49_7 C50_7 1_555 1_555
C50_7 C51_7 1_555 1_555
C51_7 H37_7 1_555 1_555
C52_7 C51_7 1_555 1_555
C53_7 C52_7 1_555 1_555
C54_7 C53_7 1_555 1_555
C55_7 C42_7 1_555 1_555
C56_7 C52_7 1_555 1_555
C57_7 C56_7 1_555 1_555
H38_7 C57_7 1_555 1_555
C58_7 C53_7 1_555 1_555
H39_7 C58_7 1_555 1_555
H40_7 C58_7 1_555 1_555
H41_7 C58_7 1_555 1_555
C59_7 C53_7 1_555 1_555
H42_7 C59_7 1_555 1_555
H43_7 C59_7 1_555 1_555
H44_7 C59_7 1_555 1_555
C60_7 C50_7 1_555 1_555
H45_7 C60_7 1_555 1_555
O11_7 C61_7 1_555 1_555
O12_7 Y1_7 1_555 1_555
C61_7 O12_7 1_555 1_555
C62_7 C61_7 1_555 1_555
C63_7 C62_7 1_555 1_555
H46_7 C63_7 1_555 1_555
C64_7 C63_7 1_555 1_555
C65_7 C64_7 1_555 1_555
C66_7 C43_7 1_555 1_555
C67_7 C54_7 1_555 1_555
C68_7 C64_7 1_555 1_555
C69_7 C68_7 1_555 1_555
H47_7 C69_7 1_555 1_555
C70_7 C65_7 1_555 1_555
H48_7 C70_7 1_555 1_555
H49_7 C70_7 1_555 1_555
H50_7 C70_7 1_555 1_555
C71_7 C65_7 1_555 1_555
H51_7 C71_7 1_555 1_555
H52_7 C71_7 1_555 1_555
H53_7 C71_7 1_555 1_555
C72_7 C62_7 1_555 1_555
H54_7 C72_7 1_555 1_555
Y3_14 O8_7 1_555 1_555
Y4_7 O3_7 1_555 1_555
Y5_14 O9_7 1_555 1_555
Y6_7 O2_7 1_555 1_555
Y9_6 O5_7 1_555 1_555
Y10_3 O4_7 1_555 1_555
Y9_14 O10_7 1_555 1_555
Y10_7 O11_7 1_555 1_555
O13_7 Y3_14 1_555 1_555
O14_7 Y1_7 1_555 1_555
O19_7 Y1_7 1_555 1_555
C7_7 C8_7 1_555 1_555
C9_7 C12_7 1_555 1_555
C18_7 C19_7 1_555 1_555
C19_7 C20_7 1_555 1_555
C21_7 C24_7 1_555 1_555
C29_7 C30_7 1_555 1_555
C30_7 C31_7 1_555 1_555
C31_7 C32_7 1_555 1_555
C33_7 C36_7 1_555 1_555
C43_7 C44_7 1_555 1_555
C45_7 C48_7 1_555 1_555
C54_7 C55_7 1_555 1_555
C55_7 C56_7 1_555 1_555
C57_7 C60_7 1_555 1_555
C65_7 C66_7 1_555 1_555
C66_7 C67_7 1_555 1_555
C67_7 C68_7 1_555 1_555
C69_7 C72_7 1_555 1_555
O15_8 Y2_15 1_555 1_555
O16_8 Y3_15 1_555 1_555
O17_8 Y3_15 1_555 1_555
O18_8 Y2_15 1_555 1_555
Y1_8 O1_8 1_555 1_555
O1_8 C1_8 1_555 1_555
O2_8 C1_8 1_555 1_555
C1_8 C2_8 1_555 1_555
C2_8 C3_8 1_555 1_555
C3_8 H1_8 1_555 1_555
C4_8 C3_8 1_555 1_555
C5_8 C4_8 1_555 1_555
C6_8 C5_8 1_555 1_555
C7_8 C6_8 1_555 1_555
C8_8 C4_8 1_555 1_555
C9_8 C8_8 1_555 1_555
H2_8 C9_8 1_555 1_555
C10_8 C5_8 1_555 1_555
H3_8 C10_8 1_555 1_555
H4_8 C10_8 1_555 1_555
H5_8 C10_8 1_555 1_555
C11_8 C5_8 1_555 1_555
H6_8 C11_8 1_555 1_555
H7_8 C11_8 1_555 1_555
H8_8 C11_8 1_555 1_555
C12_8 C2_8 1_555 1_555
H9_8 C12_8 1_555 1_555
O3_8 C13_8 1_555 1_555
O4_8 C13_8 1_555 1_555
C13_8 C14_8 1_555 1_555
C14_8 C15_8 1_555 1_555
C15_8 H10_8 1_555 1_555
C16_8 C15_8 1_555 1_555
C17_8 C16_8 1_555 1_555
C18_8 C17_8 1_555 1_555
C19_8 C6_8 1_555 1_555
C20_8 C16_8 1_555 1_555
C21_8 C20_8 1_555 1_555
H11_8 C21_8 1_555 1_555
C22_8 C17_8 1_555 1_555
H12_8 C22_8 1_555 1_555
H13_8 C22_8 1_555 1_555
H14_8 C22_8 1_555 1_555
C23_8 C17_8 1_555 1_555
H15_8 C23_8 1_555 1_555
H16_8 C23_8 1_555 1_555
H17_8 C23_8 1_555 1_555
C24_8 C14_8 1_555 1_555
H18_8 C24_8 1_555 1_555
O5_8 C25_8 1_555 1_555
O6_8 C25_8 1_555 1_555
C25_8 C26_8 1_555 1_555
C26_8 C27_8 1_555 1_555
C27_8 H19_8 1_555 1_555
C28_8 C27_8 1_555 1_555
C29_8 C28_8 1_555 1_555
C30_8 C7_8 1_555 1_555
C31_8 C18_8 1_555 1_555
C32_8 C28_8 1_555 1_555
C33_8 C32_8 1_555 1_555
H20_8 C33_8 1_555 1_555
C34_8 C29_8 1_555 1_555
H21_8 C34_8 1_555 1_555
H22_8 C34_8 1_555 1_555
H23_8 C34_8 1_555 1_555
C35_8 C29_8 1_555 1_555
H24_8 C35_8 1_555 1_555
H25_8 C35_8 1_555 1_555
H26_8 C35_8 1_555 1_555
C36_8 C26_8 1_555 1_555
H27_8 C36_8 1_555 1_555
Y2_16 O6_8 1_555 1_555
O7_8 Y2_16 1_555 1_555
O8_8 C37_8 1_555 1_555
C37_8 O7_8 1_555 1_555
C38_8 C37_8 1_555 1_555
C39_8 C38_8 1_555 1_555
H28_8 C39_8 1_555 1_555
C40_8 C39_8 1_555 1_555
C41_8 C40_8 1_555 1_555
C42_8 C41_8 1_555 1_555
C43_8 C42_8 1_555 1_555
C44_8 C40_8 1_555 1_555
C45_8 C44_8 1_555 1_555
H29_8 C45_8 1_555 1_555
C46_8 C41_8 1_555 1_555
H30_8 C46_8 1_555 1_555
H31_8 C46_8 1_555 1_555
H32_8 C46_8 1_555 1_555
C47_8 C41_8 1_555 1_555
H33_8 C47_8 1_555 1_555
H34_8 C47_8 1_555 1_555
H35_8 C47_8 1_555 1_555
C48_8 C38_8 1_555 1_555
H36_8 C48_8 1_555 1_555
O9_8 C49_8 1_555 1_555
O10_8 C49_8 1_555 1_555
C49_8 C50_8 1_555 1_555
C50_8 C51_8 1_555 1_555
C51_8 H37_8 1_555 1_555
C52_8 C51_8 1_555 1_555
C53_8 C52_8 1_555 1_555
C54_8 C53_8 1_555 1_555
C55_8 C42_8 1_555 1_555
C56_8 C52_8 1_555 1_555
C57_8 C56_8 1_555 1_555
H38_8 C57_8 1_555 1_555
C58_8 C53_8 1_555 1_555
H39_8 C58_8 1_555 1_555
H40_8 C58_8 1_555 1_555
H41_8 C58_8 1_555 1_555
C59_8 C53_8 1_555 1_555
H42_8 C59_8 1_555 1_555
H43_8 C59_8 1_555 1_555
H44_8 C59_8 1_555 1_555
C60_8 C50_8 1_555 1_555
H45_8 C60_8 1_555 1_555
O11_8 C61_8 1_555 1_555
O12_8 Y1_8 1_555 1_555
C61_8 O12_8 1_555 1_555
C62_8 C61_8 1_555 1_555
C63_8 C62_8 1_555 1_555
H46_8 C63_8 1_555 1_555
C64_8 C63_8 1_555 1_555
C65_8 C64_8 1_555 1_555
C66_8 C43_8 1_555 1_555
C67_8 C54_8 1_555 1_555
C68_8 C64_8 1_555 1_555
C69_8 C68_8 1_555 1_555
H47_8 C69_8 1_555 1_555
C70_8 C65_8 1_555 1_555
H48_8 C70_8 1_555 1_555
H49_8 C70_8 1_555 1_555
H50_8 C70_8 1_555 1_555
C71_8 C65_8 1_555 1_555
H51_8 C71_8 1_555 1_555
H52_8 C71_8 1_555 1_555
H53_8 C71_8 1_555 1_555
C72_8 C62_8 1_555 1_555
H54_8 C72_8 1_555 1_555
Y3_16 O8_8 1_555 1_555
Y4_8 O3_8 1_555 1_555
Y5_15 O9_8 1_555 1_555
Y6_8 O2_8 1_555 1_555
Y9_4 O5_8 1_555 1_555
Y10_2 O4_8 1_555 1_555
Y9_15 O10_8 1_555 1_555
Y10_8 O11_8 1_555 1_555
O13_8 Y3_16 1_555 1_555
O14_8 Y1_8 1_555 1_555
O19_8 Y1_8 1_555 1_555
C7_8 C8_8 1_555 1_555
C9_8 C12_8 1_555 1_555
C18_8 C19_8 1_555 1_555
C19_8 C20_8 1_555 1_555
C21_8 C24_8 1_555 1_555
C29_8 C30_8 1_555 1_555
C30_8 C31_8 1_555 1_555
C31_8 C32_8 1_555 1_555
C33_8 C36_8 1_555 1_555
C43_8 C44_8 1_555 1_555
C45_8 C48_8 1_555 1_555
C54_8 C55_8 1_555 1_555
C55_8 C56_8 1_555 1_555
C57_8 C60_8 1_555 1_555
C65_8 C66_8 1_555 1_555
C66_8 C67_8 1_555 1_555
C67_8 C68_8 1_555 1_555
C69_8 C72_8 1_555 1_555
Y1_9 O1_9 1_555 1_555
O1_9 C1_9 1_555 1_555
O2_9 C1_9 1_555 1_555
C1_9 C2_9 1_555 1_555
C2_9 C3_9 1_555 1_555
C3_9 H1_9 1_555 1_555
C4_9 C3_9 1_555 1_555
C5_9 C4_9 1_555 1_555
C6_9 C5_9 1_555 1_555
C7_9 C6_9 1_555 1_555
C8_9 C4_9 1_555 1_555
C9_9 C8_9 1_555 1_555
H2_9 C9_9 1_555 1_555
C10_9 C5_9 1_555 1_555
H3_9 C10_9 1_555 1_555
H4_9 C10_9 1_555 1_555
H5_9 C10_9 1_555 1_555
C11_9 C5_9 1_555 1_555
H6_9 C11_9 1_555 1_555
H7_9 C11_9 1_555 1_555
H8_9 C11_9 1_555 1_555
C12_9 C2_9 1_555 1_555
H9_9 C12_9 1_555 1_555
O3_9 C13_9 1_555 1_555
O4_9 C13_9 1_555 1_555
C13_9 C14_9 1_555 1_555
C14_9 C15_9 1_555 1_555
C15_9 H10_9 1_555 1_555
C16_9 C15_9 1_555 1_555
C17_9 C16_9 1_555 1_555
C18_9 C17_9 1_555 1_555
C19_9 C6_9 1_555 1_555
C20_9 C16_9 1_555 1_555
C21_9 C20_9 1_555 1_555
H11_9 C21_9 1_555 1_555
C22_9 C17_9 1_555 1_555
H12_9 C22_9 1_555 1_555
H13_9 C22_9 1_555 1_555
H14_9 C22_9 1_555 1_555
C23_9 C17_9 1_555 1_555
H15_9 C23_9 1_555 1_555
H16_9 C23_9 1_555 1_555
H17_9 C23_9 1_555 1_555
C24_9 C14_9 1_555 1_555
H18_9 C24_9 1_555 1_555
O5_9 C25_9 1_555 1_555
O6_9 C25_9 1_555 1_555
C25_9 C26_9 1_555 1_555
C26_9 C27_9 1_555 1_555
C27_9 H19_9 1_555 1_555
C28_9 C27_9 1_555 1_555
C29_9 C28_9 1_555 1_555
C30_9 C7_9 1_555 1_555
C31_9 C18_9 1_555 1_555
C32_9 C28_9 1_555 1_555
C33_9 C32_9 1_555 1_555
H20_9 C33_9 1_555 1_555
C34_9 C29_9 1_555 1_555
H21_9 C34_9 1_555 1_555
H22_9 C34_9 1_555 1_555
H23_9 C34_9 1_555 1_555
C35_9 C29_9 1_555 1_555
H24_9 C35_9 1_555 1_555
H25_9 C35_9 1_555 1_555
H26_9 C35_9 1_555 1_555
C36_9 C26_9 1_555 1_555
H27_9 C36_9 1_555 1_555
Y2_17 O6_9 1_555 1_555
O7_9 Y2_17 1_555 1_555
O8_9 C37_9 1_555 1_555
C37_9 O7_9 1_555 1_555
C38_9 C37_9 1_555 1_555
C39_9 C38_9 1_555 1_555
H28_9 C39_9 1_555 1_555
C40_9 C39_9 1_555 1_555
C41_9 C40_9 1_555 1_555
C42_9 C41_9 1_555 1_555
C43_9 C42_9 1_555 1_555
C44_9 C40_9 1_555 1_555
C45_9 C44_9 1_555 1_555
H29_9 C45_9 1_555 1_555
C46_9 C41_9 1_555 1_555
H30_9 C46_9 1_555 1_555
H31_9 C46_9 1_555 1_555
H32_9 C46_9 1_555 1_555
C47_9 C41_9 1_555 1_555
H33_9 C47_9 1_555 1_555
H34_9 C47_9 1_555 1_555
H35_9 C47_9 1_555 1_555
C48_9 C38_9 1_555 1_555
H36_9 C48_9 1_555 1_555
O9_9 C49_9 1_555 1_555
O10_9 C49_9 1_555 1_555
C49_9 C50_9 1_555 1_555
C50_9 C51_9 1_555 1_555
C51_9 H37_9 1_555 1_555
C52_9 C51_9 1_555 1_555
C53_9 C52_9 1_555 1_555
C54_9 C53_9 1_555 1_555
C55_9 C42_9 1_555 1_555
C56_9 C52_9 1_555 1_555
C57_9 C56_9 1_555 1_555
H38_9 C57_9 1_555 1_555
C58_9 C53_9 1_555 1_555
H39_9 C58_9 1_555 1_555
H40_9 C58_9 1_555 1_555
H41_9 C58_9 1_555 1_555
C59_9 C53_9 1_555 1_555
H42_9 C59_9 1_555 1_555
H43_9 C59_9 1_555 1_555
H44_9 C59_9 1_555 1_555
C60_9 C50_9 1_555 1_555
H45_9 C60_9 1_555 1_555
O11_9 C61_9 1_555 1_555
O12_9 Y1_9 1_555 1_555
C61_9 O12_9 1_555 1_555
C62_9 C61_9 1_555 1_555
C63_9 C62_9 1_555 1_555
H46_9 C63_9 1_555 1_555
C64_9 C63_9 1_555 1_555
C65_9 C64_9 1_555 1_555
C66_9 C43_9 1_555 1_555
C67_9 C54_9 1_555 1_555
C68_9 C64_9 1_555 1_555
C69_9 C68_9 1_555 1_555
H47_9 C69_9 1_555 1_555
C70_9 C65_9 1_555 1_555
H48_9 C70_9 1_555 1_555
H49_9 C70_9 1_555 1_555
H50_9 C70_9 1_555 1_555
C71_9 C65_9 1_555 1_555
H51_9 C71_9 1_555 1_555
H52_9 C71_9 1_555 1_555
H53_9 C71_9 1_555 1_555
C72_9 C62_9 1_555 1_555
H54_9 C72_9 1_555 1_555
Y3_17 O8_9 1_555 1_555
Y4_9 O3_9 1_555 1_555
Y5_17 O9_9 1_555 1_555
Y6_9 O2_9 1_555 1_555
Y9_15 O5_9 1_555 1_555
Y10_8 O4_9 1_555 1_555
Y7_3 O10_9 1_555 1_555
Y8_2 O11_9 1_555 1_555
O13_9 Y3_17 1_555 1_555
O14_9 Y1_9 1_555 1_555
O19_9 Y1_9 1_555 1_555
C7_9 C8_9 1_555 1_555
C9_9 C12_9 1_555 1_555
C18_9 C19_9 1_555 1_555
C19_9 C20_9 1_555 1_555
C21_9 C24_9 1_555 1_555
C29_9 C30_9 1_555 1_555
C30_9 C31_9 1_555 1_555
C31_9 C32_9 1_555 1_555
C33_9 C36_9 1_555 1_555
C43_9 C44_9 1_555 1_555
C45_9 C48_9 1_555 1_555
C54_9 C55_9 1_555 1_555
C55_9 C56_9 1_555 1_555
C57_9 C60_9 1_555 1_555
C65_9 C66_9 1_555 1_555
C66_9 C67_9 1_555 1_555
C67_9 C68_9 1_555 1_555
C69_9 C72_9 1_555 1_555
O15_9 Y2_18 1_555 1_555
O16_9 Y3_18 1_555 1_555
O17_9 Y3_18 1_555 1_555
O18_9 Y2_18 1_555 1_555
Y1_10 O1_10 1_555 1_555
O1_10 C1_10 1_555 1_555
O2_10 C1_10 1_555 1_555
C1_10 C2_10 1_555 1_555
C2_10 C3_10 1_555 1_555
C3_10 H1_10 1_555 1_555
C4_10 C3_10 1_555 1_555
C5_10 C4_10 1_555 1_555
C6_10 C5_10 1_555 1_555
C7_10 C6_10 1_555 1_555
C8_10 C4_10 1_555 1_555
C9_10 C8_10 1_555 1_555
H2_10 C9_10 1_555 1_555
C10_10 C5_10 1_555 1_555
H3_10 C10_10 1_555 1_555
H4_10 C10_10 1_555 1_555
H5_10 C10_10 1_555 1_555
C11_10 C5_10 1_555 1_555
H6_10 C11_10 1_555 1_555
H7_10 C11_10 1_555 1_555
H8_10 C11_10 1_555 1_555
C12_10 C2_10 1_555 1_555
H9_10 C12_10 1_555 1_555
O3_10 C13_10 1_555 1_555
O4_10 C13_10 1_555 1_555
C13_10 C14_10 1_555 1_555
C14_10 C15_10 1_555 1_555
C15_10 H10_10 1_555 1_555
C16_10 C15_10 1_555 1_555
C17_10 C16_10 1_555 1_555
C18_10 C17_10 1_555 1_555
C19_10 C6_10 1_555 1_555
C20_10 C16_10 1_555 1_555
C21_10 C20_10 1_555 1_555
H11_10 C21_10 1_555 1_555
C22_10 C17_10 1_555 1_555
H12_10 C22_10 1_555 1_555
H13_10 C22_10 1_555 1_555
H14_10 C22_10 1_555 1_555
C23_10 C17_10 1_555 1_555
H15_10 C23_10 1_555 1_555
H16_10 C23_10 1_555 1_555
H17_10 C23_10 1_555 1_555
C24_10 C14_10 1_555 1_555
H18_10 C24_10 1_555 1_555
O5_10 C25_10 1_555 1_555
O6_10 C25_10 1_555 1_555
C25_10 C26_10 1_555 1_555
C26_10 C27_10 1_555 1_555
C27_10 H19_10 1_555 1_555
C28_10 C27_10 1_555 1_555
C29_10 C28_10 1_555 1_555
C30_10 C7_10 1_555 1_555
C31_10 C18_10 1_555 1_555
C32_10 C28_10 1_555 1_555
C33_10 C32_10 1_555 1_555
H20_10 C33_10 1_555 1_555
C34_10 C29_10 1_555 1_555
H21_10 C34_10 1_555 1_555
H22_10 C34_10 1_555 1_555
H23_10 C34_10 1_555 1_555
C35_10 C29_10 1_555 1_555
H24_10 C35_10 1_555 1_555
H25_10 C35_10 1_555 1_555
H26_10 C35_10 1_555 1_555
C36_10 C26_10 1_555 1_555
H27_10 C36_10 1_555 1_555
Y2_19 O6_10 1_555 1_555
O7_10 Y2_19 1_555 1_555
O8_10 C37_10 1_555 1_555
C37_10 O7_10 1_555 1_555
C38_10 C37_10 1_555 1_555
C39_10 C38_10 1_555 1_555
H28_10 C39_10 1_555 1_555
C40_10 C39_10 1_555 1_555
C41_10 C40_10 1_555 1_555
C42_10 C41_10 1_555 1_555
C43_10 C42_10 1_555 1_555
C44_10 C40_10 1_555 1_555
C45_10 C44_10 1_555 1_555
H29_10 C45_10 1_555 1_555
C46_10 C41_10 1_555 1_555
H30_10 C46_10 1_555 1_555
H31_10 C46_10 1_555 1_555
H32_10 C46_10 1_555 1_555
C47_10 C41_10 1_555 1_555
H33_10 C47_10 1_555 1_555
H34_10 C47_10 1_555 1_555
H35_10 C47_10 1_555 1_555
C48_10 C38_10 1_555 1_555
H36_10 C48_10 1_555 1_555
O9_10 C49_10 1_555 1_555
O10_10 C49_10 1_555 1_555
C49_10 C50_10 1_555 1_555
C50_10 C51_10 1_555 1_555
C51_10 H37_10 1_555 1_555
C52_10 C51_10 1_555 1_555
C53_10 C52_10 1_555 1_555
C54_10 C53_10 1_555 1_555
C55_10 C42_10 1_555 1_555
C56_10 C52_10 1_555 1_555
C57_10 C56_10 1_555 1_555
H38_10 C57_10 1_555 1_555
C58_10 C53_10 1_555 1_555
H39_10 C58_10 1_555 1_555
H40_10 C58_10 1_555 1_555
H41_10 C58_10 1_555 1_555
C59_10 C53_10 1_555 1_555
H42_10 C59_10 1_555 1_555
H43_10 C59_10 1_555 1_555
H44_10 C59_10 1_555 1_555
C60_10 C50_10 1_555 1_555
H45_10 C60_10 1_555 1_555
O11_10 C61_10 1_555 1_555
O12_10 Y1_10 1_555 1_555
C61_10 O12_10 1_555 1_555
C62_10 C61_10 1_555 1_555
C63_10 C62_10 1_555 1_555
H46_10 C63_10 1_555 1_555
C64_10 C63_10 1_555 1_555
C65_10 C64_10 1_555 1_555
C66_10 C43_10 1_555 1_555
C67_10 C54_10 1_555 1_555
C68_10 C64_10 1_555 1_555
C69_10 C68_10 1_555 1_555
H47_10 C69_10 1_555 1_555
C70_10 C65_10 1_555 1_555
H48_10 C70_10 1_555 1_555
H49_10 C70_10 1_555 1_555
H50_10 C70_10 1_555 1_555
C71_10 C65_10 1_555 1_555
H51_10 C71_10 1_555 1_555
H52_10 C71_10 1_555 1_555
H53_10 C71_10 1_555 1_555
C72_10 C62_10 1_555 1_555
H54_10 C72_10 1_555 1_555
Y3_19 O8_10 1_555 1_555
Y4_10 O3_10 1_555 1_555
Y5_20 O9_10 1_555 1_555
Y6_10 O2_10 1_555 1_555
Y9_9 O5_10 1_555 1_555
Y10_5 O4_10 1_555 1_555
Y7_8 O10_10 1_555 1_555
Y8_4 O11_10 1_555 1_555
O13_10 Y3_19 1_555 1_555
O14_10 Y1_10 1_555 1_555
O19_10 Y1_10 1_555 1_555
C7_10 C8_10 1_555 1_555
C9_10 C12_10 1_555 1_555
C18_10 C19_10 1_555 1_555
C19_10 C20_10 1_555 1_555
C21_10 C24_10 1_555 1_555
C29_10 C30_10 1_555 1_555
C30_10 C31_10 1_555 1_555
C31_10 C32_10 1_555 1_555
C33_10 C36_10 1_555 1_555
C43_10 C44_10 1_555 1_555
C45_10 C48_10 1_555 1_555
C54_10 C55_10 1_555 1_555
C55_10 C56_10 1_555 1_555
C57_10 C60_10 1_555 1_555
C65_10 C66_10 1_555 1_555
C66_10 C67_10 1_555 1_555
C67_10 C68_10 1_555 1_555
C69_10 C72_10 1_555 1_555
O15_10 Y2_20 1_555 1_555
O16_10 Y3_20 1_555 1_555
O17_10 Y3_20 1_555 1_555
O18_10 Y2_20 1_555 1_555
O15_11 Y2_21 1_555 1_555
O16_11 Y3_21 1_555 1_555
O17_11 Y3_21 1_555 1_555
O18_11 Y2_21 1_555 1_555
Y1_11 O1_11 1_555 1_555
O1_11 C1_11 1_555 1_555
O2_11 C1_11 1_555 1_555
C1_11 C2_11 1_555 1_555
C2_11 C3_11 1_555 1_555
C3_11 H1_11 1_555 1_555
C4_11 C3_11 1_555 1_555
C5_11 C4_11 1_555 1_555
C6_11 C5_11 1_555 1_555
C7_11 C6_11 1_555 1_555
C8_11 C4_11 1_555 1_555
C9_11 C8_11 1_555 1_555
H2_11 C9_11 1_555 1_555
C10_11 C5_11 1_555 1_555
H3_11 C10_11 1_555 1_555
H4_11 C10_11 1_555 1_555
H5_11 C10_11 1_555 1_555
C11_11 C5_11 1_555 1_555
H6_11 C11_11 1_555 1_555
H7_11 C11_11 1_555 1_555
H8_11 C11_11 1_555 1_555
C12_11 C2_11 1_555 1_555
H9_11 C12_11 1_555 1_555
O3_11 C13_11 1_555 1_555
O4_11 C13_11 1_555 1_555
C13_11 C14_11 1_555 1_555
C14_11 C15_11 1_555 1_555
C15_11 H10_11 1_555 1_555
C16_11 C15_11 1_555 1_555
C17_11 C16_11 1_555 1_555
C18_11 C17_11 1_555 1_555
C19_11 C6_11 1_555 1_555
C20_11 C16_11 1_555 1_555
C21_11 C20_11 1_555 1_555
H11_11 C21_11 1_555 1_555
C22_11 C17_11 1_555 1_555
H12_11 C22_11 1_555 1_555
H13_11 C22_11 1_555 1_555
H14_11 C22_11 1_555 1_555
C23_11 C17_11 1_555 1_555
H15_11 C23_11 1_555 1_555
H16_11 C23_11 1_555 1_555
H17_11 C23_11 1_555 1_555
C24_11 C14_11 1_555 1_555
H18_11 C24_11 1_555 1_555
O5_11 C25_11 1_555 1_555
O6_11 C25_11 1_555 1_555
C25_11 C26_11 1_555 1_555
C26_11 C27_11 1_555 1_555
C27_11 H19_11 1_555 1_555
C28_11 C27_11 1_555 1_555
C29_11 C28_11 1_555 1_555
C30_11 C7_11 1_555 1_555
C31_11 C18_11 1_555 1_555
C32_11 C28_11 1_555 1_555
C33_11 C32_11 1_555 1_555
H20_11 C33_11 1_555 1_555
C34_11 C29_11 1_555 1_555
H21_11 C34_11 1_555 1_555
H22_11 C34_11 1_555 1_555
H23_11 C34_11 1_555 1_555
C35_11 C29_11 1_555 1_555
H24_11 C35_11 1_555 1_555
H25_11 C35_11 1_555 1_555
H26_11 C35_11 1_555 1_555
C36_11 C26_11 1_555 1_555
H27_11 C36_11 1_555 1_555
Y2_22 O6_11 1_555 1_555
O7_11 Y2_22 1_555 1_555
O8_11 C37_11 1_555 1_555
C37_11 O7_11 1_555 1_555
C38_11 C37_11 1_555 1_555
C39_11 C38_11 1_555 1_555
H28_11 C39_11 1_555 1_555
C40_11 C39_11 1_555 1_555
C41_11 C40_11 1_555 1_555
C42_11 C41_11 1_555 1_555
C43_11 C42_11 1_555 1_555
C44_11 C40_11 1_555 1_555
C45_11 C44_11 1_555 1_555
H29_11 C45_11 1_555 1_555
C46_11 C41_11 1_555 1_555
H30_11 C46_11 1_555 1_555
H31_11 C46_11 1_555 1_555
H32_11 C46_11 1_555 1_555
C47_11 C41_11 1_555 1_555
H33_11 C47_11 1_555 1_555
H34_11 C47_11 1_555 1_555
H35_11 C47_11 1_555 1_555
C48_11 C38_11 1_555 1_555
H36_11 C48_11 1_555 1_555
O9_11 C49_11 1_555 1_555
O10_11 C49_11 1_555 1_555
C49_11 C50_11 1_555 1_555
C50_11 C51_11 1_555 1_555
C51_11 H37_11 1_555 1_555
C52_11 C51_11 1_555 1_555
C53_11 C52_11 1_555 1_555
C54_11 C53_11 1_555 1_555
C55_11 C42_11 1_555 1_555
C56_11 C52_11 1_555 1_555
C57_11 C56_11 1_555 1_555
H38_11 C57_11 1_555 1_555
C58_11 C53_11 1_555 1_555
H39_11 C58_11 1_555 1_555
H40_11 C58_11 1_555 1_555
H41_11 C58_11 1_555 1_555
C59_11 C53_11 1_555 1_555
H42_11 C59_11 1_555 1_555
H43_11 C59_11 1_555 1_555
H44_11 C59_11 1_555 1_555
C60_11 C50_11 1_555 1_555
H45_11 C60_11 1_555 1_555
O11_11 C61_11 1_555 1_555
O12_11 Y1_11 1_555 1_555
C61_11 O12_11 1_555 1_555
C62_11 C61_11 1_555 1_555
C63_11 C62_11 1_555 1_555
H46_11 C63_11 1_555 1_555
C64_11 C63_11 1_555 1_555
C65_11 C64_11 1_555 1_555
C66_11 C43_11 1_555 1_555
C67_11 C54_11 1_555 1_555
C68_11 C64_11 1_555 1_555
C69_11 C68_11 1_555 1_555
H47_11 C69_11 1_555 1_555
C70_11 C65_11 1_555 1_555
H48_11 C70_11 1_555 1_555
H49_11 C70_11 1_555 1_555
H50_11 C70_11 1_555 1_555
C71_11 C65_11 1_555 1_555
H51_11 C71_11 1_555 1_555
H52_11 C71_11 1_555 1_555
H53_11 C71_11 1_555 1_555
C72_11 C62_11 1_555 1_555
H54_11 C72_11 1_555 1_555
Y3_22 O8_11 1_555 1_555
Y4_11 O3_11 1_555 1_555
Y5_22 O9_11 1_555 1_555
Y6_11 O2_11 1_555 1_555
Y9_14 O5_11 1_555 1_555
Y10_7 O4_11 1_555 1_555
Y7_6 O10_11 1_555 1_555
Y8_3 O11_11 1_555 1_555
O13_11 Y3_22 1_555 1_555
O14_11 Y1_11 1_555 1_555
O19_11 Y1_11 1_555 1_555
C7_11 C8_11 1_555 1_555
C9_11 C12_11 1_555 1_555
C18_11 C19_11 1_555 1_555
C19_11 C20_11 1_555 1_555
C21_11 C24_11 1_555 1_555
C29_11 C30_11 1_555 1_555
C30_11 C31_11 1_555 1_555
C31_11 C32_11 1_555 1_555
C33_11 C36_11 1_555 1_555
C43_11 C44_11 1_555 1_555
C45_11 C48_11 1_555 1_555
C54_11 C55_11 1_555 1_555
C55_11 C56_11 1_555 1_555
C57_11 C60_11 1_555 1_555
C65_11 C66_11 1_555 1_555
C66_11 C67_11 1_555 1_555
C67_11 C68_11 1_555 1_555
C69_11 C72_11 1_555 1_555
O15_12 Y2_23 1_555 1_555
O16_12 Y3_23 1_555 1_555
O17_12 Y3_23 1_555 1_555
O18_12 Y2_23 1_555 1_555
Y1_12 O1_12 1_555 1_555
O1_12 C1_12 1_555 1_555
O2_12 C1_12 1_555 1_555
C1_12 C2_12 1_555 1_555
C2_12 C3_12 1_555 1_555
C3_12 H1_12 1_555 1_555
C4_12 C3_12 1_555 1_555
C5_12 C4_12 1_555 1_555
C6_12 C5_12 1_555 1_555
C7_12 C6_12 1_555 1_555
C8_12 C4_12 1_555 1_555
C9_12 C8_12 1_555 1_555
H2_12 C9_12 1_555 1_555
C10_12 C5_12 1_555 1_555
H3_12 C10_12 1_555 1_555
H4_12 C10_12 1_555 1_555
H5_12 C10_12 1_555 1_555
C11_12 C5_12 1_555 1_555
H6_12 C11_12 1_555 1_555
H7_12 C11_12 1_555 1_555
H8_12 C11_12 1_555 1_555
C12_12 C2_12 1_555 1_555
H9_12 C12_12 1_555 1_555
O3_12 C13_12 1_555 1_555
O4_12 C13_12 1_555 1_555
C13_12 C14_12 1_555 1_555
C14_12 C15_12 1_555 1_555
C15_12 H10_12 1_555 1_555
C16_12 C15_12 1_555 1_555
C17_12 C16_12 1_555 1_555
C18_12 C17_12 1_555 1_555
C19_12 C6_12 1_555 1_555
C20_12 C16_12 1_555 1_555
C21_12 C20_12 1_555 1_555
H11_12 C21_12 1_555 1_555
C22_12 C17_12 1_555 1_555
H12_12 C22_12 1_555 1_555
H13_12 C22_12 1_555 1_555
H14_12 C22_12 1_555 1_555
C23_12 C17_12 1_555 1_555
H15_12 C23_12 1_555 1_555
H16_12 C23_12 1_555 1_555
H17_12 C23_12 1_555 1_555
C24_12 C14_12 1_555 1_555
H18_12 C24_12 1_555 1_555
O5_12 C25_12 1_555 1_555
O6_12 C25_12 1_555 1_555
C25_12 C26_12 1_555 1_555
C26_12 C27_12 1_555 1_555
C27_12 H19_12 1_555 1_555
C28_12 C27_12 1_555 1_555
C29_12 C28_12 1_555 1_555
C30_12 C7_12 1_555 1_555
C31_12 C18_12 1_555 1_555
C32_12 C28_12 1_555 1_555
C33_12 C32_12 1_555 1_555
H20_12 C33_12 1_555 1_555
C34_12 C29_12 1_555 1_555
H21_12 C34_12 1_555 1_555
H22_12 C34_12 1_555 1_555
H23_12 C34_12 1_555 1_555
C35_12 C29_12 1_555 1_555
H24_12 C35_12 1_555 1_555
H25_12 C35_12 1_555 1_555
H26_12 C35_12 1_555 1_555
C36_12 C26_12 1_555 1_555
H27_12 C36_12 1_555 1_555
Y2_24 O6_12 1_555 1_555
O7_12 Y2_24 1_555 1_555
O8_12 C37_12 1_555 1_555
C37_12 O7_12 1_555 1_555
C38_12 C37_12 1_555 1_555
C39_12 C38_12 1_555 1_555
H28_12 C39_12 1_555 1_555
C40_12 C39_12 1_555 1_555
C41_12 C40_12 1_555 1_555
C42_12 C41_12 1_555 1_555
C43_12 C42_12 1_555 1_555
C44_12 C40_12 1_555 1_555
C45_12 C44_12 1_555 1_555
H29_12 C45_12 1_555 1_555
C46_12 C41_12 1_555 1_555
H30_12 C46_12 1_555 1_555
H31_12 C46_12 1_555 1_555
H32_12 C46_12 1_555 1_555
C47_12 C41_12 1_555 1_555
H33_12 C47_12 1_555 1_555
H34_12 C47_12 1_555 1_555
H35_12 C47_12 1_555 1_555
C48_12 C38_12 1_555 1_555
H36_12 C48_12 1_555 1_555
O9_12 C49_12 1_555 1_555
O10_12 C49_12 1_555 1_555
C49_12 C50_12 1_555 1_555
C50_12 C51_12 1_555 1_555
C51_12 H37_12 1_555 1_555
C52_12 C51_12 1_555 1_555
C53_12 C52_12 1_555 1_555
C54_12 C53_12 1_555 1_555
C55_12 C42_12 1_555 1_555
C56_12 C52_12 1_555 1_555
C57_12 C56_12 1_555 1_555
H38_12 C57_12 1_555 1_555
C58_12 C53_12 1_555 1_555
H39_12 C58_12 1_555 1_555
H40_12 C58_12 1_555 1_555
H41_12 C58_12 1_555 1_555
C59_12 C53_12 1_555 1_555
H42_12 C59_12 1_555 1_555
H43_12 C59_12 1_555 1_555
H44_12 C59_12 1_555 1_555
C60_12 C50_12 1_555 1_555
H45_12 C60_12 1_555 1_555
O11_12 C61_12 1_555 1_555
O12_12 Y1_12 1_555 1_555
C61_12 O12_12 1_555 1_555
C62_12 C61_12 1_555 1_555
C63_12 C62_12 1_555 1_555
H46_12 C63_12 1_555 1_555
C64_12 C63_12 1_555 1_555
C65_12 C64_12 1_555 1_555
C66_12 C43_12 1_555 1_555
C67_12 C54_12 1_555 1_555
C68_12 C64_12 1_555 1_555
C69_12 C68_12 1_555 1_555
H47_12 C69_12 1_555 1_555
C70_12 C65_12 1_555 1_555
H48_12 C70_12 1_555 1_555
H49_12 C70_12 1_555 1_555
H50_12 C70_12 1_555 1_555
C71_12 C65_12 1_555 1_555
H51_12 C71_12 1_555 1_555
H52_12 C71_12 1_555 1_555
H53_12 C71_12 1_555 1_555
C72_12 C62_12 1_555 1_555
H54_12 C72_12 1_555 1_555
Y3_24 O8_12 1_555 1_555
Y4_12 O3_12 1_555 1_555
Y5_23 O9_12 1_555 1_555
Y6_12 O2_12 1_555 1_555
Y9_12 O5_12 1_555 1_555
Y10_6 O4_12 1_555 1_555
Y7 O10_12 1_555 1_555
Y8 O11_12 1_555 1_555
O13_12 Y3_24 1_555 1_555
O14_12 Y1_12 1_555 1_555
O19_12 Y1_12 1_555 1_555
C7_12 C8_12 1_555 1_555
C9_12 C12_12 1_555 1_555
C18_12 C19_12 1_555 1_555
C19_12 C20_12 1_555 1_555
C21_12 C24_12 1_555 1_555
C29_12 C30_12 1_555 1_555
C30_12 C31_12 1_555 1_555
C31_12 C32_12 1_555 1_555
C33_12 C36_12 1_555 1_555
C43_12 C44_12 1_555 1_555
C45_12 C48_12 1_555 1_555
C54_12 C55_12 1_555 1_555
C55_12 C56_12 1_555 1_555
C57_12 C60_12 1_555 1_555
C65_12 C66_12 1_555 1_555
C66_12 C67_12 1_555 1_555
C67_12 C68_12 1_555 1_555
C69_12 C72_12 1_555 1_555
O13_13 Y6_6 1_555 1_555
O16_13 Y6_6 1_555 1_555
O17_13 Y6_6 1_555 1_555
O13_14 Y6_8 1_555 1_555
O16_14 Y6_8 1_555 1_555
O17_14 Y6_8 1_555 1_555
O13_15 Y6_5 1_555 1_555
O16_15 Y6_5 1_555 1_555
O17_15 Y6_5 1_555 1_555
O13_16 Y6_7 1_555 1_555
O16_16 Y6_7 1_555 1_555
O17_16 Y6_7 1_555 1_555
O13_17 Y6_3 1_555 1_555
O16_17 Y6_3 1_555 1_555
O17_17 Y6_3 1_555 1_555
O13_18 Y6 1_555 1_555
O16_18 Y6 1_555 1_555
O17_18 Y6 1_555 1_555
O13_19 Y6_4 1_555 1_555
O16_19 Y6_4 1_555 1_555
O17_19 Y6_4 1_555 1_555
O13_20 Y6_2 1_555 1_555
O16_20 Y6_2 1_555 1_555
O17_20 Y6_2 1_555 1_555
O13_21 Y6_9 1_555 1_555
O16_21 Y6_9 1_555 1_555
O17_21 Y6_9 1_555 1_555
O13_22 Y6_11 1_555 1_555
O16_22 Y6_11 1_555 1_555
O17_22 Y6_11 1_555 1_555
O13_23 Y6_10 1_555 1_555
O16_23 Y6_10 1_555 1_555
O17_23 Y6_10 1_555 1_555
O13_24 Y6_12 1_555 1_555
O16_24 Y6_12 1_555 1_555
O17_24 Y6_12 1_555 1_555
O15_13 Y10_5 1_555 1_555
O18_13 Y10_5 1_555 1_555
O14_13 Y9_10 1_555 1_555
O19_13 Y9_10 1_555 1_555
O14_14 Y9_13 1_555 1_555
O19_14 Y9_13 1_555 1_555
O15_14 Y10_7 1_555 1_555
O18_14 Y10_7 1_555 1_555
O15_15 Y10_8 1_555 1_555
O18_15 Y10_8 1_555 1_555
O14_15 Y9_16 1_555 1_555
O19_15 Y9_16 1_555 1_555
O14_16 Y9_11 1_555 1_555
O19_16 Y9_11 1_555 1_555
O15_16 Y10_6 1_555 1_555
O18_16 Y10_6 1_555 1_555
O13 C1_13 1_555 1_555
O2_13 C1_13 1_555 1_555
C1_13 C2_13 1_555 1_555
C2_13 C3_13 1_555 1_555
C3_13 H1_13 1_555 1_555
C4_13 C3_13 1_555 1_555
C5_13 C4_13 1_555 1_555
C6_13 C5_13 1_555 1_555
C7_13 C6_13 1_555 1_555
C8_13 C4_13 1_555 1_555
C9_13 C8_13 1_555 1_555
H2_13 C9_13 1_555 1_555
C10_13 C5_13 1_555 1_555
H3_13 C10_13 1_555 1_555
H4_13 C10_13 1_555 1_555
H5_13 C10_13 1_555 1_555
C11_13 C5_13 1_555 1_555
H6_13 C11_13 1_555 1_555
H7_13 C11_13 1_555 1_555
H8_13 C11_13 1_555 1_555
C12_13 C2_13 1_555 1_555
H9_13 C12_13 1_555 1_555
O13_12 C13_13 1_555 1_555
O4_13 C13_13 1_555 1_555
C13_13 C14_13 1_555 1_555
C14_13 C15_13 1_555 1_555
C15_13 H10_13 1_555 1_555
C16_13 C15_13 1_555 1_555
C17_13 C16_13 1_555 1_555
C18_13 C17_13 1_555 1_555
C19_13 C6_13 1_555 1_555
C20_13 C16_13 1_555 1_555
C21_13 C20_13 1_555 1_555
H11_13 C21_13 1_555 1_555
C22_13 C17_13 1_555 1_555
H12_13 C22_13 1_555 1_555
H13_13 C22_13 1_555 1_555
H14_13 C22_13 1_555 1_555
C23_13 C17_13 1_555 1_555
H15_13 C23_13 1_555 1_555
H16_13 C23_13 1_555 1_555
H17_13 C23_13 1_555 1_555
C24_13 C14_13 1_555 1_555
H18_13 C24_13 1_555 1_555
O13_6 C25_13 1_555 1_555
O6_13 C25_13 1_555 1_555
C25_13 C26_13 1_555 1_555
C26_13 C27_13 1_555 1_555
C27_13 H19_13 1_555 1_555
C28_13 C27_13 1_555 1_555
C29_13 C28_13 1_555 1_555
C30_13 C7_13 1_555 1_555
C31_13 C18_13 1_555 1_555
C32_13 C28_13 1_555 1_555
C33_13 C32_13 1_555 1_555
H20_13 C33_13 1_555 1_555
C34_13 C29_13 1_555 1_555
H21_13 C34_13 1_555 1_555
H22_13 C34_13 1_555 1_555
H23_13 C34_13 1_555 1_555
C35_13 C29_13 1_555 1_555
H24_13 C35_13 1_555 1_555
H25_13 C35_13 1_555 1_555
H26_13 C35_13 1_555 1_555
C36_13 C26_13 1_555 1_555
H27_13 C36_13 1_555 1_555
Y5 O6_13 1_555 1_555
Y5_23 O2_13 1_555 1_555
Y5_12 O4_13 1_555 1_555
C7_13 C8_13 1_555 1_555
C9_13 C12_13 1_555 1_555
C18_13 C19_13 1_555 1_555
C19_13 C20_13 1_555 1_555
C21_13 C24_13 1_555 1_555
C29_13 C30_13 1_555 1_555
C30_13 C31_13 1_555 1_555
C31_13 C32_13 1_555 1_555
C33_13 C36_13 1_555 1_555
O15_17 Y5_2 1_555 1_555
O16_25 Y9_2 1_555 1_555
O17_25 Y9_2 1_555 1_555
O18_17 Y5_2 1_555 1_555
O13_4 C1_14 1_555 1_555
O2_14 C1_14 1_555 1_555
C1_14 C2_14 1_555 1_555
C2_14 C3_14 1_555 1_555
C3_14 H1_14 1_555 1_555
C4_14 C3_14 1_555 1_555
C5_14 C4_14 1_555 1_555
C6_14 C5_14 1_555 1_555
C7_14 C6_14 1_555 1_555
C8_14 C4_14 1_555 1_555
C9_14 C8_14 1_555 1_555
H2_14 C9_14 1_555 1_555
C10_14 C5_14 1_555 1_555
H3_14 C10_14 1_555 1_555
H4_14 C10_14 1_555 1_555
H5_14 C10_14 1_555 1_555
C11_14 C5_14 1_555 1_555
H6_14 C11_14 1_555 1_555
H7_14 C11_14 1_555 1_555
H8_14 C11_14 1_555 1_555
C12_14 C2_14 1_555 1_555
H9_14 C12_14 1_555 1_555
O13_10 C13_14 1_555 1_555
O4_14 C13_14 1_555 1_555
C13_14 C14_14 1_555 1_555
C14_14 C15_14 1_555 1_555
C15_14 H10_14 1_555 1_555
C16_14 C15_14 1_555 1_555
C17_14 C16_14 1_555 1_555
C18_14 C17_14 1_555 1_555
C19_14 C6_14 1_555 1_555
C20_14 C16_14 1_555 1_555
C21_14 C20_14 1_555 1_555
H11_14 C21_14 1_555 1_555
C22_14 C17_14 1_555 1_555
H12_14 C22_14 1_555 1_555
H13_14 C22_14 1_555 1_555
H14_14 C22_14 1_555 1_555
C23_14 C17_14 1_555 1_555
H15_14 C23_14 1_555 1_555
H16_14 C23_14 1_555 1_555
H17_14 C23_14 1_555 1_555
C24_14 C14_14 1_555 1_555
H18_14 C24_14 1_555 1_555
O13_5 C25_14 1_555 1_555
O6_14 C25_14 1_555 1_555
C25_14 C26_14 1_555 1_555
C26_14 C27_14 1_555 1_555
C27_14 H19_14 1_555 1_555
C28_14 C27_14 1_555 1_555
C29_14 C28_14 1_555 1_555
C30_14 C7_14 1_555 1_555
C31_14 C18_14 1_555 1_555
C32_14 C28_14 1_555 1_555
C33_14 C32_14 1_555 1_555
H20_14 C33_14 1_555 1_555
C34_14 C29_14 1_555 1_555
H21_14 C34_14 1_555 1_555
H22_14 C34_14 1_555 1_555
H23_14 C34_14 1_555 1_555
C35_14 C29_14 1_555 1_555
H24_14 C35_14 1_555 1_555
H25_14 C35_14 1_555 1_555
H26_14 C35_14 1_555 1_555
C36_14 C26_14 1_555 1_555
H27_14 C36_14 1_555 1_555
Y5_7 O6_14 1_555 1_555
Y5_20 O2_14 1_555 1_555
Y5_9 O4_14 1_555 1_555
C7_14 C8_14 1_555 1_555
C9_14 C12_14 1_555 1_555
C18_14 C19_14 1_555 1_555
C19_14 C20_14 1_555 1_555
C21_14 C24_14 1_555 1_555
C29_14 C30_14 1_555 1_555
C30_14 C31_14 1_555 1_555
C31_14 C32_14 1_555 1_555
C33_14 C36_14 1_555 1_555
O15_18 Y5_8 1_555 1_555
O16_26 Y9_8 1_555 1_555
O17_26 Y9_8 1_555 1_555
O18_18 Y5_8 1_555 1_555
O15_19 Y5_3 1_555 1_555
O16_27 Y9_3 1_555 1_555
O17_27 Y9_3 1_555 1_555
O18_19 Y5_3 1_555 1_555
O13_2 C1_15 1_555 1_555
O2_15 C1_15 1_555 1_555
C1_15 C2_15 1_555 1_555
C2_15 C3_15 1_555 1_555
C3_15 H1_15 1_555 1_555
C4_15 C3_15 1_555 1_555
C5_15 C4_15 1_555 1_555
C6_15 C5_15 1_555 1_555
C7_15 C6_15 1_555 1_555
C8_15 C4_15 1_555 1_555
C9_15 C8_15 1_555 1_555
H2_15 C9_15 1_555 1_555
C10_15 C5_15 1_555 1_555
H3_15 C10_15 1_555 1_555
H4_15 C10_15 1_555 1_555
H5_15 C10_15 1_555 1_555
C11_15 C5_15 1_555 1_555
H6_15 C11_15 1_555 1_555
H7_15 C11_15 1_555 1_555
H8_15 C11_15 1_555 1_555
C12_15 C2_15 1_555 1_555
H9_15 C12_15 1_555 1_555
O13_9 C13_15 1_555 1_555
O4_15 C13_15 1_555 1_555
C13_15 C14_15 1_555 1_555
C14_15 C15_15 1_555 1_555
C15_15 H10_15 1_555 1_555
C16_15 C15_15 1_555 1_555
C17_15 C16_15 1_555 1_555
C18_15 C17_15 1_555 1_555
C19_15 C6_15 1_555 1_555
C20_15 C16_15 1_555 1_555
C21_15 C20_15 1_555 1_555
H11_15 C21_15 1_555 1_555
C22_15 C17_15 1_555 1_555
H12_15 C22_15 1_555 1_555
H13_15 C22_15 1_555 1_555
H14_15 C22_15 1_555 1_555
C23_15 C17_15 1_555 1_555
H15_15 C23_15 1_555 1_555
H16_15 C23_15 1_555 1_555
H17_15 C23_15 1_555 1_555
C24_15 C14_15 1_555 1_555
H18_15 C24_15 1_555 1_555
O13_8 C25_15 1_555 1_555
O6_15 C25_15 1_555 1_555
C25_15 C26_15 1_555 1_555
C26_15 C27_15 1_555 1_555
C27_15 H19_15 1_555 1_555
C28_15 C27_15 1_555 1_555
C29_15 C28_15 1_555 1_555
C30_15 C7_15 1_555 1_555
C31_15 C18_15 1_555 1_555
C32_15 C28_15 1_555 1_555
C33_15 C32_15 1_555 1_555
H20_15 C33_15 1_555 1_555
C34_15 C29_15 1_555 1_555
H21_15 C34_15 1_555 1_555
H22_15 C34_15 1_555 1_555
H23_15 C34_15 1_555 1_555
C35_15 C29_15 1_555 1_555
H24_15 C35_15 1_555 1_555
H25_15 C35_15 1_555 1_555
H26_15 C35_15 1_555 1_555
C36_15 C26_15 1_555 1_555
H27_15 C36_15 1_555 1_555
Y5_4 O6_15 1_555 1_555
Y5_17 O2_15 1_555 1_555
Y5_15 O4_15 1_555 1_555
C7_15 C8_15 1_555 1_555
C9_15 C12_15 1_555 1_555
C18_15 C19_15 1_555 1_555
C19_15 C20_15 1_555 1_555
C21_15 C24_15 1_555 1_555
C29_15 C30_15 1_555 1_555
C30_15 C31_15 1_555 1_555
C31_15 C32_15 1_555 1_555
C33_15 C36_15 1_555 1_555
O15_20 Y5_5 1_555 1_555
O16_28 Y9_5 1_555 1_555
O17_28 Y9_5 1_555 1_555
O18_20 Y5_5 1_555 1_555
O13_3 C1_16 1_555 1_555
O2_16 C1_16 1_555 1_555
C1_16 C2_16 1_555 1_555
C2_16 C3_16 1_555 1_555
C3_16 H1_16 1_555 1_555
C4_16 C3_16 1_555 1_555
C5_16 C4_16 1_555 1_555
C6_16 C5_16 1_555 1_555
C7_16 C6_16 1_555 1_555
C8_16 C4_16 1_555 1_555
C9_16 C8_16 1_555 1_555
H2_16 C9_16 1_555 1_555
C10_16 C5_16 1_555 1_555
H3_16 C10_16 1_555 1_555
H4_16 C10_16 1_555 1_555
H5_16 C10_16 1_555 1_555
C11_16 C5_16 1_555 1_555
H6_16 C11_16 1_555 1_555
H7_16 C11_16 1_555 1_555
H8_16 C11_16 1_555 1_555
C12_16 C2_16 1_555 1_555
H9_16 C12_16 1_555 1_555
O13_11 C13_16 1_555 1_555
O4_16 C13_16 1_555 1_555
C13_16 C14_16 1_555 1_555
C14_16 C15_16 1_555 1_555
C15_16 H10_16 1_555 1_555
C16_16 C15_16 1_555 1_555
C17_16 C16_16 1_555 1_555
C18_16 C17_16 1_555 1_555
C19_16 C6_16 1_555 1_555
C20_16 C16_16 1_555 1_555
C21_16 C20_16 1_555 1_555
H11_16 C21_16 1_555 1_555
C22_16 C17_16 1_555 1_555
H12_16 C22_16 1_555 1_555
H13_16 C22_16 1_555 1_555
H14_16 C22_16 1_555 1_555
C23_16 C17_16 1_555 1_555
H15_16 C23_16 1_555 1_555
H16_16 C23_16 1_555 1_555
H17_16 C23_16 1_555 1_555
C24_16 C14_16 1_555 1_555
H18_16 C24_16 1_555 1_555
O13_7 C25_16 1_555 1_555
O6_16 C25_16 1_555 1_555
C25_16 C26_16 1_555 1_555
C26_16 C27_16 1_555 1_555
C27_16 H19_16 1_555 1_555
C28_16 C27_16 1_555 1_555
C29_16 C28_16 1_555 1_555
C30_16 C7_16 1_555 1_555
C31_16 C18_16 1_555 1_555
C32_16 C28_16 1_555 1_555
C33_16 C32_16 1_555 1_555
H20_16 C33_16 1_555 1_555
C34_16 C29_16 1_555 1_555
H21_16 C34_16 1_555 1_555
H22_16 C34_16 1_555 1_555
H23_16 C34_16 1_555 1_555
C35_16 C29_16 1_555 1_555
H24_16 C35_16 1_555 1_555
H25_16 C35_16 1_555 1_555
H26_16 C35_16 1_555 1_555
C36_16 C26_16 1_555 1_555
H27_16 C36_16 1_555 1_555
Y5_6 O6_16 1_555 1_555
Y5_22 O2_16 1_555 1_555
Y5_14 O4_16 1_555 1_555
C7_16 C8_16 1_555 1_555
C9_16 C12_16 1_555 1_555
C18_16 C19_16 1_555 1_555
C19_16 C20_16 1_555 1_555
C21_16 C24_16 1_555 1_555
C29_16 C30_16 1_555 1_555
C30_16 C31_16 1_555 1_555
C31_16 C32_16 1_555 1_555
C33_16 C36_16 1_555 1_555
O8_13 C37_13 1_555 1_555
C37_13 O13_17 1_555 1_555
C38_13 C37_13 1_555 1_555
C39_13 C38_13 1_555 1_555
H28_13 C39_13 1_555 1_555
C40_13 C39_13 1_555 1_555
C41_13 C40_13 1_555 1_555
C42_13 C41_13 1_555 1_555
C43_13 C42_13 1_555 1_555
C44_13 C40_13 1_555 1_555
C45_13 C44_13 1_555 1_555
H29_13 C45_13 1_555 1_555
C46_13 C41_13 1_555 1_555
H30_13 C46_13 1_555 1_555
H31_13 C46_13 1_555 1_555
H32_13 C46_13 1_555 1_555
C47_13 C41_13 1_555 1_555
H33_13 C47_13 1_555 1_555
H34_13 C47_13 1_555 1_555
H35_13 C47_13 1_555 1_555
C48_13 C38_13 1_555 1_555
H36_13 C48_13 1_555 1_555
O13_16 C49_13 1_555 1_555
O10_13 C49_13 1_555 1_555
C49_13 C50_13 1_555 1_555
C50_13 C51_13 1_555 1_555
C51_13 H37_13 1_555 1_555
C52_13 C51_13 1_555 1_555
C53_13 C52_13 1_555 1_555
C54_13 C53_13 1_555 1_555
C55_13 C42_13 1_555 1_555
C56_13 C52_13 1_555 1_555
C57_13 C56_13 1_555 1_555
H38_13 C57_13 1_555 1_555
C58_13 C53_13 1_555 1_555
H39_13 C58_13 1_555 1_555
H40_13 C58_13 1_555 1_555
H41_13 C58_13 1_555 1_555
C59_13 C53_13 1_555 1_555
H42_13 C59_13 1_555 1_555
H43_13 C59_13 1_555 1_555
H44_13 C59_13 1_555 1_555
C60_13 C50_13 1_555 1_555
H45_13 C60_13 1_555 1_555
O13_22 C61_13 1_555 1_555
O12_13 Y4_3 1_555 1_555
C61_13 O12_13 1_555 1_555
C62_13 C61_13 1_555 1_555
C63_13 C62_13 1_555 1_555
H46_13 C63_13 1_555 1_555
C64_13 C63_13 1_555 1_555
C65_13 C64_13 1_555 1_555
C66_13 C43_13 1_555 1_555
C67_13 C54_13 1_555 1_555
C68_13 C64_13 1_555 1_555
C69_13 C68_13 1_555 1_555
H47_13 C69_13 1_555 1_555
C70_13 C65_13 1_555 1_555
H48_13 C70_13 1_555 1_555
H49_13 C70_13 1_555 1_555
H50_13 C70_13 1_555 1_555
C71_13 C65_13 1_555 1_555
H51_13 C71_13 1_555 1_555
H52_13 C71_13 1_555 1_555
H53_13 C71_13 1_555 1_555
C72_13 C62_13 1_555 1_555
H54_13 C72_13 1_555 1_555
Y4_7 O8_13 1_555 1_555
Y4_11 O10_13 1_555 1_555
O14_17 Y4_3 1_555 1_555
O16_29 Y4_7 1_555 1_555
O17_29 Y4_7 1_555 1_555
O19_17 Y4_3 1_555 1_555
C43_13 C44_13 1_555 1_555
C45_13 C48_13 1_555 1_555
C54_13 C55_13 1_555 1_555
C55_13 C56_13 1_555 1_555
C57_13 C60_13 1_555 1_555
C65_13 C66_13 1_555 1_555
C66_13 C67_13 1_555 1_555
C67_13 C68_13 1_555 1_555
C69_13 C72_13 1_555 1_555
O8_14 C37_14 1_555 1_555
C37_14 O13_18 1_555 1_555
C38_14 C37_14 1_555 1_555
C39_14 C38_14 1_555 1_555
H28_14 C39_14 1_555 1_555
C40_14 C39_14 1_555 1_555
C41_14 C40_14 1_555 1_555
C42_14 C41_14 1_555 1_555
C43_14 C42_14 1_555 1_555
C44_14 C40_14 1_555 1_555
C45_14 C44_14 1_555 1_555
H29_14 C45_14 1_555 1_555
C46_14 C41_14 1_555 1_555
H30_14 C46_14 1_555 1_555
H31_14 C46_14 1_555 1_555
H32_14 C46_14 1_555 1_555
C47_14 C41_14 1_555 1_555
H33_14 C47_14 1_555 1_555
H34_14 C47_14 1_555 1_555
H35_14 C47_14 1_555 1_555
C48_14 C38_14 1_555 1_555
H36_14 C48_14 1_555 1_555
O13_13 C49_14 1_555 1_555
O10_14 C49_14 1_555 1_555
C49_14 C50_14 1_555 1_555
C50_14 C51_14 1_555 1_555
C51_14 H37_14 1_555 1_555
C52_14 C51_14 1_555 1_555
C53_14 C52_14 1_555 1_555
C54_14 C53_14 1_555 1_555
C55_14 C42_14 1_555 1_555
C56_14 C52_14 1_555 1_555
C57_14 C56_14 1_555 1_555
H38_14 C57_14 1_555 1_555
C58_14 C53_14 1_555 1_555
H39_14 C58_14 1_555 1_555
H40_14 C58_14 1_555 1_555
H41_14 C58_14 1_555 1_555
C59_14 C53_14 1_555 1_555
H42_14 C59_14 1_555 1_555
H43_14 C59_14 1_555 1_555
H44_14 C59_14 1_555 1_555
C60_14 C50_14 1_555 1_555
H45_14 C60_14 1_555 1_555
O13_24 C61_14 1_555 1_555
O12_14 Y4 1_555 1_555
C61_14 O12_14 1_555 1_555
C62_14 C61_14 1_555 1_555
C63_14 C62_14 1_555 1_555
H46_14 C63_14 1_555 1_555
C64_14 C63_14 1_555 1_555
C65_14 C64_14 1_555 1_555
C66_14 C43_14 1_555 1_555
C67_14 C54_14 1_555 1_555
C68_14 C64_14 1_555 1_555
C69_14 C68_14 1_555 1_555
H47_14 C69_14 1_555 1_555
C70_14 C65_14 1_555 1_555
H48_14 C70_14 1_555 1_555
H49_14 C70_14 1_555 1_555
H50_14 C70_14 1_555 1_555
C71_14 C65_14 1_555 1_555
H51_14 C71_14 1_555 1_555
H52_14 C71_14 1_555 1_555
H53_14 C71_14 1_555 1_555
C72_14 C62_14 1_555 1_555
H54_14 C72_14 1_555 1_555
Y4_6 O8_14 1_555 1_555
Y4_12 O10_14 1_555 1_555
O14_18 Y4 1_555 1_555
O16_30 Y4_6 1_555 1_555
O17_30 Y4_6 1_555 1_555
O19_18 Y4 1_555 1_555
C43_14 C44_14 1_555 1_555
C45_14 C48_14 1_555 1_555
C54_14 C55_14 1_555 1_555
C55_14 C56_14 1_555 1_555
C57_14 C60_14 1_555 1_555
C65_14 C66_14 1_555 1_555
C66_14 C67_14 1_555 1_555
C67_14 C68_14 1_555 1_555
C69_14 C72_14 1_555 1_555
O8_15 C37_15 1_555 1_555
C37_15 O13_20 1_555 1_555
C38_15 C37_15 1_555 1_555
C39_15 C38_15 1_555 1_555
H28_15 C39_15 1_555 1_555
C40_15 C39_15 1_555 1_555
C41_15 C40_15 1_555 1_555
C42_15 C41_15 1_555 1_555
C43_15 C42_15 1_555 1_555
C44_15 C40_15 1_555 1_555
C45_15 C44_15 1_555 1_555
H29_15 C45_15 1_555 1_555
C46_15 C41_15 1_555 1_555
H30_15 C46_15 1_555 1_555
H31_15 C46_15 1_555 1_555
H32_15 C46_15 1_555 1_555
C47_15 C41_15 1_555 1_555
H33_15 C47_15 1_555 1_555
H34_15 C47_15 1_555 1_555
H35_15 C47_15 1_555 1_555
C48_15 C38_15 1_555 1_555
H36_15 C48_15 1_555 1_555
O13_14 C49_15 1_555 1_555
O10_15 C49_15 1_555 1_555
C49_15 C50_15 1_555 1_555
C50_15 C51_15 1_555 1_555
C51_15 H37_15 1_555 1_555
C52_15 C51_15 1_555 1_555
C53_15 C52_15 1_555 1_555
C54_15 C53_15 1_555 1_555
C55_15 C42_15 1_555 1_555
C56_15 C52_15 1_555 1_555
C57_15 C56_15 1_555 1_555
H38_15 C57_15 1_555 1_555
C58_15 C53_15 1_555 1_555
H39_15 C58_15 1_555 1_555
H40_15 C58_15 1_555 1_555
H41_15 C58_15 1_555 1_555
C59_15 C53_15 1_555 1_555
H42_15 C59_15 1_555 1_555
H43_15 C59_15 1_555 1_555
H44_15 C59_15 1_555 1_555
C60_15 C50_15 1_555 1_555
H45_15 C60_15 1_555 1_555
O13_21 C61_15 1_555 1_555
O12_15 Y4_2 1_555 1_555
C61_15 O12_15 1_555 1_555
C62_15 C61_15 1_555 1_555
C63_15 C62_15 1_555 1_555
H46_15 C63_15 1_555 1_555
C64_15 C63_15 1_555 1_555
C65_15 C64_15 1_555 1_555
C66_15 C43_15 1_555 1_555
C67_15 C54_15 1_555 1_555
C68_15 C64_15 1_555 1_555
C69_15 C68_15 1_555 1_555
H47_15 C69_15 1_555 1_555
C70_15 C65_15 1_555 1_555
H48_15 C70_15 1_555 1_555
H49_15 C70_15 1_555 1_555
H50_15 C70_15 1_555 1_555
C71_15 C65_15 1_555 1_555
H51_15 C71_15 1_555 1_555
H52_15 C71_15 1_555 1_555
H53_15 C71_15 1_555 1_555
C72_15 C62_15 1_555 1_555
H54_15 C72_15 1_555 1_555
Y4_8 O8_15 1_555 1_555
Y4_9 O10_15 1_555 1_555
O14_19 Y4_2 1_555 1_555
O16_31 Y4_8 1_555 1_555
O17_31 Y4_8 1_555 1_555
O19_19 Y4_2 1_555 1_555
C43_15 C44_15 1_555 1_555
C45_15 C48_15 1_555 1_555
C54_15 C55_15 1_555 1_555
C55_15 C56_15 1_555 1_555
C57_15 C60_15 1_555 1_555
C65_15 C66_15 1_555 1_555
C66_15 C67_15 1_555 1_555
C67_15 C68_15 1_555 1_555
C69_15 C72_15 1_555 1_555
O8_16 C37_16 1_555 1_555
C37_16 O13_19 1_555 1_555
C38_16 C37_16 1_555 1_555
C39_16 C38_16 1_555 1_555
H28_16 C39_16 1_555 1_555
C40_16 C39_16 1_555 1_555
C41_16 C40_16 1_555 1_555
C42_16 C41_16 1_555 1_555
C43_16 C42_16 1_555 1_555
C44_16 C40_16 1_555 1_555
C45_16 C44_16 1_555 1_555
H29_16 C45_16 1_555 1_555
C46_16 C41_16 1_555 1_555
H30_16 C46_16 1_555 1_555
H31_16 C46_16 1_555 1_555
H32_16 C46_16 1_555 1_555
C47_16 C41_16 1_555 1_555
H33_16 C47_16 1_555 1_555
H34_16 C47_16 1_555 1_555
H35_16 C47_16 1_555 1_555
C48_16 C38_16 1_555 1_555
H36_16 C48_16 1_555 1_555
O13_15 C49_16 1_555 1_555
O10_16 C49_16 1_555 1_555
C49_16 C50_16 1_555 1_555
C50_16 C51_16 1_555 1_555
C51_16 H37_16 1_555 1_555
C52_16 C51_16 1_555 1_555
C53_16 C52_16 1_555 1_555
C54_16 C53_16 1_555 1_555
C55_16 C42_16 1_555 1_555
C56_16 C52_16 1_555 1_555
C57_16 C56_16 1_555 1_555
H38_16 C57_16 1_555 1_555
C58_16 C53_16 1_555 1_555
H39_16 C58_16 1_555 1_555
H40_16 C58_16 1_555 1_555
H41_16 C58_16 1_555 1_555
C59_16 C53_16 1_555 1_555
H42_16 C59_16 1_555 1_555
H43_16 C59_16 1_555 1_555
H44_16 C59_16 1_555 1_555
C60_16 C50_16 1_555 1_555
H45_16 C60_16 1_555 1_555
O13_23 C61_16 1_555 1_555
O12_16 Y4_4 1_555 1_555
C61_16 O12_16 1_555 1_555
C62_16 C61_16 1_555 1_555
C63_16 C62_16 1_555 1_555
H46_16 C63_16 1_555 1_555
C64_16 C63_16 1_555 1_555
C65_16 C64_16 1_555 1_555
C66_16 C43_16 1_555 1_555
C67_16 C54_16 1_555 1_555
C68_16 C64_16 1_555 1_555
C69_16 C68_16 1_555 1_555
H47_16 C69_16 1_555 1_555
C70_16 C65_16 1_555 1_555
H48_16 C70_16 1_555 1_555
H49_16 C70_16 1_555 1_555
H50_16 C70_16 1_555 1_555
C71_16 C65_16 1_555 1_555
H51_16 C71_16 1_555 1_555
H52_16 C71_16 1_555 1_555
H53_16 C71_16 1_555 1_555
C72_16 C62_16 1_555 1_555
H54_16 C72_16 1_555 1_555
Y4_5 O8_16 1_555 1_555
Y4_10 O10_16 1_555 1_555
O14_20 Y4_4 1_555 1_555
O16_32 Y4_5 1_555 1_555
O17_32 Y4_5 1_555 1_555
O19_20 Y4_4 1_555 1_555
C43_16 C44_16 1_555 1_555
C45_16 C48_16 1_555 1_555
C54_16 C55_16 1_555 1_555
C55_16 C56_16 1_555 1_555
C57_16 C60_16 1_555 1_555
C65_16 C66_16 1_555 1_555
C66_16 C67_16 1_555 1_555
C67_16 C68_16 1_555 1_555
C69_16 C72_16 1_555 1_555
O16_33 Y5_19 1_555 1_555
O17_33 Y5_19 1_555 1_555
O16_34 Y5_21 1_555 1_555
O17_34 Y5_21 1_555 1_555
O16_35 Y5_24 1_555 1_555
O17_35 Y5_24 1_555 1_555
O16_36 Y5_18 1_555 1_555
O17_36 Y5_18 1_555 1_555
O16_37 Y8_3 1_555 1_555
O17_37 Y8_3 1_555 1_555
O16_38 Y8_2 1_555 1_555
O17_38 Y8_2 1_555 1_555
O16_39 Y8 1_555 1_555
O17_39 Y8 1_555 1_555
O16_40 Y8_4 1_555 1_555
O17_40 Y8_4 1_555 1_555
O16_41 Y4_11 1_555 1_555
O17_41 Y4_11 1_555 1_555
O16_42 Y4_10 1_555 1_555
O17_42 Y4_10 1_555 1_555
O16_43 Y4_12 1_555 1_555
O17_43 Y4_12 1_555 1_555
O16_44 Y4_9 1_555 1_555
O17_44 Y4_9 1_555 1_555
O14_21 Y7_4 1_555 1_555
O19_21 Y7_4 1_555 1_555
O14_22 Y7_5 1_555 1_555
O19_22 Y7_5 1_555 1_555
O14_23 Y7_2 1_555 1_555
O19_23 Y7_2 1_555 1_555
O14_24 Y7_7 1_555 1_555
O19_24 Y7_7 1_555 1_555
O15_21 Y5_10 1_555 1_555
O18_21 Y5_10 1_555 1_555
O15_22 Y5_16 1_555 1_555
O18_22 Y5_16 1_555 1_555
O15_23 Y5_11 1_555 1_555
O18_23 Y5_11 1_555 1_555
O15_24 Y5_13 1_555 1_555
O18_24 Y5_13 1_555 1_555
O16_45 Y10 1_555 1_555
O17_45 Y10 1_555 1_555
O16_46 Y10_3 1_555 1_555
O17_46 Y10_3 1_555 1_555
O16_47 Y10_2 1_555 1_555
O17_47 Y10_2 1_555 1_555
O16_48 Y10_4 1_555 1_555
O17_48 Y10_4 1_555 1_555
O14_3 C1_17 1_555 1_555
O17_17 C1_17 1_555 1_555
C1_17 C2_17 1_555 1_555
C2_17 C3_17 1_555 1_555
C3_17 H1_17 1_555 1_555
C4_17 C3_17 1_555 1_555
C5_17 C4_17 1_555 1_555
C6_17 C5_17 1_555 1_555
C7_17 C6_17 1_555 1_555
C8_17 C4_17 1_555 1_555
C9_17 C8_17 1_555 1_555
H2_17 C9_17 1_555 1_555
C10_17 C5_17 1_555 1_555
H3_17 C10_17 1_555 1_555
H4_17 C10_17 1_555 1_555
H5_17 C10_17 1_555 1_555
C11_17 C5_17 1_555 1_555
H6_17 C11_17 1_555 1_555
H7_17 C11_17 1_555 1_555
H8_17 C11_17 1_555 1_555
C12_17 C2_17 1_555 1_555
H9_17 C12_17 1_555 1_555
O14_20 C13_17 1_555 1_555
O17_40 C13_17 1_555 1_555
C13_17 C14_17 1_555 1_555
C14_17 C15_17 1_555 1_555
C15_17 H10_17 1_555 1_555
C16_17 C15_17 1_555 1_555
C17_17 C16_17 1_555 1_555
C18_17 C17_17 1_555 1_555
C19_17 C6_17 1_555 1_555
C20_17 C16_17 1_555 1_555
C21_17 C20_17 1_555 1_555
H11_17 C21_17 1_555 1_555
C22_17 C17_17 1_555 1_555
H12_17 C22_17 1_555 1_555
H13_17 C22_17 1_555 1_555
H14_17 C22_17 1_555 1_555
C23_17 C17_17 1_555 1_555
H15_17 C23_17 1_555 1_555
H16_17 C23_17 1_555 1_555
H17_17 C23_17 1_555 1_555
C24_17 C14_17 1_555 1_555
H18_17 C24_17 1_555 1_555
O14_21 C25_17 1_555 1_555
O18_2 C25_17 1_555 1_555
C25_17 C26_17 1_555 1_555
C26_17 C27_17 1_555 1_555
C27_17 H19_17 1_555 1_555
C28_17 C27_17 1_555 1_555
C29_17 C28_17 1_555 1_555
C30_17 C7_17 1_555 1_555
C31_17 C18_17 1_555 1_555
C32_17 C28_17 1_555 1_555
C33_17 C32_17 1_555 1_555
H20_17 C33_17 1_555 1_555
C34_17 C29_17 1_555 1_555
H21_17 C34_17 1_555 1_555
H22_17 C34_17 1_555 1_555
H23_17 C34_17 1_555 1_555
C35_17 C29_17 1_555 1_555
H24_17 C35_17 1_555 1_555
H25_17 C35_17 1_555 1_555
H26_17 C35_17 1_555 1_555
C36_17 C26_17 1_555 1_555
H27_17 C36_17 1_555 1_555
O17_2 C37_17 1_555 1_555
C37_17 O15_2 1_555 1_555
C38_17 C37_17 1_555 1_555
C39_17 C38_17 1_555 1_555
H28_17 C39_17 1_555 1_555
C40_17 C39_17 1_555 1_555
C41_17 C40_17 1_555 1_555
C42_17 C41_17 1_555 1_555
C43_17 C42_17 1_555 1_555
C44_17 C40_17 1_555 1_555
C45_17 C44_17 1_555 1_555
H29_17 C45_17 1_555 1_555
C46_17 C41_17 1_555 1_555
H30_17 C46_17 1_555 1_555
H31_17 C46_17 1_555 1_555
H32_17 C46_17 1_555 1_555
C47_17 C41_17 1_555 1_555
H33_17 C47_17 1_555 1_555
H34_17 C47_17 1_555 1_555
H35_17 C47_17 1_555 1_555
C48_17 C38_17 1_555 1_555
H36_17 C48_17 1_555 1_555
O15_18 C49_17 1_555 1_555
O17_26 C49_17 1_555 1_555
C49_17 C50_17 1_555 1_555
C50_17 C51_17 1_555 1_555
C51_17 H37_17 1_555 1_555
C52_17 C51_17 1_555 1_555
C53_17 C52_17 1_555 1_555
C54_17 C53_17 1_555 1_555
C55_17 C42_17 1_555 1_555
C56_17 C52_17 1_555 1_555
C57_17 C56_17 1_555 1_555
H38_17 C57_17 1_555 1_555
C58_17 C53_17 1_555 1_555
H39_17 C58_17 1_555 1_555
H40_17 C58_17 1_555 1_555
H41_17 C58_17 1_555 1_555
C59_17 C53_17 1_555 1_555
H42_17 C59_17 1_555 1_555
H43_17 C59_17 1_555 1_555
H44_17 C59_17 1_555 1_555
C60_17 C50_17 1_555 1_555
H45_17 C60_17 1_555 1_555
O16_46 C61_17 1_555 1_555
C61_17 O19_3 1_555 1_555
C62_17 C61_17 1_555 1_555
C63_17 C62_17 1_555 1_555
H46_17 C63_17 1_555 1_555
C64_17 C63_17 1_555 1_555
C65_17 C64_17 1_555 1_555
C66_17 C43_17 1_555 1_555
C67_17 C54_17 1_555 1_555
C68_17 C64_17 1_555 1_555
C69_17 C68_17 1_555 1_555
H47_17 C69_17 1_555 1_555
C70_17 C65_17 1_555 1_555
H48_17 C70_17 1_555 1_555
H49_17 C70_17 1_555 1_555
H50_17 C70_17 1_555 1_555
C71_17 C65_17 1_555 1_555
H51_17 C71_17 1_555 1_555
H52_17 C71_17 1_555 1_555
H53_17 C71_17 1_555 1_555
C72_17 C62_17 1_555 1_555
H54_17 C72_17 1_555 1_555
C7_17 C8_17 1_555 1_555
C9_17 C12_17 1_555 1_555
C18_17 C19_17 1_555 1_555
C19_17 C20_17 1_555 1_555
C21_17 C24_17 1_555 1_555
C29_17 C30_17 1_555 1_555
C30_17 C31_17 1_555 1_555
C31_17 C32_17 1_555 1_555
C33_17 C36_17 1_555 1_555
C43_17 C44_17 1_555 1_555
C45_17 C48_17 1_555 1_555
C54_17 C55_17 1_555 1_555
C55_17 C56_17 1_555 1_555
C57_17 C60_17 1_555 1_555
C65_17 C66_17 1_555 1_555
C66_17 C67_17 1_555 1_555
C67_17 C68_17 1_555 1_555
C69_17 C72_17 1_555 1_555
O14_4 C1_18 1_555 1_555
O17_19 C1_18 1_555 1_555
C1_18 C2_18 1_555 1_555
C2_18 C3_18 1_555 1_555
C3_18 H1_18 1_555 1_555
C4_18 C3_18 1_555 1_555
C5_18 C4_18 1_555 1_555
C6_18 C5_18 1_555 1_555
C7_18 C6_18 1_555 1_555
C8_18 C4_18 1_555 1_555
C9_18 C8_18 1_555 1_555
H2_18 C9_18 1_555 1_555
C10_18 C5_18 1_555 1_555
H3_18 C10_18 1_555 1_555
H4_18 C10_18 1_555 1_555
H5_18 C10_18 1_555 1_555
C11_18 C5_18 1_555 1_555
H6_18 C11_18 1_555 1_555
H7_18 C11_18 1_555 1_555
H8_18 C11_18 1_555 1_555
C12_18 C2_18 1_555 1_555
H9_18 C12_18 1_555 1_555
O14_17 C13_18 1_555 1_555
O17_37 C13_18 1_555 1_555
C13_18 C14_18 1_555 1_555
C14_18 C15_18 1_555 1_555
C15_18 H10_18 1_555 1_555
C16_18 C15_18 1_555 1_555
C17_18 C16_18 1_555 1_555
C18_18 C17_18 1_555 1_555
C19_18 C6_18 1_555 1_555
C20_18 C16_18 1_555 1_555
C21_18 C20_18 1_555 1_555
H11_18 C21_18 1_555 1_555
C22_18 C17_18 1_555 1_555
H12_18 C22_18 1_555 1_555
H13_18 C22_18 1_555 1_555
H14_18 C22_18 1_555 1_555
C23_18 C17_18 1_555 1_555
H15_18 C23_18 1_555 1_555
H16_18 C23_18 1_555 1_555
H17_18 C23_18 1_555 1_555
C24_18 C14_18 1_555 1_555
H18_18 C24_18 1_555 1_555
O14_23 C25_18 1_555 1_555
O18 C25_18 1_555 1_555
C25_18 C26_18 1_555 1_555
C26_18 C27_18 1_555 1_555
C27_18 H19_18 1_555 1_555
C28_18 C27_18 1_555 1_555
C29_18 C28_18 1_555 1_555
C30_18 C7_18 1_555 1_555
C31_18 C18_18 1_555 1_555
C32_18 C28_18 1_555 1_555
C33_18 C32_18 1_555 1_555
H20_18 C33_18 1_555 1_555
C34_18 C29_18 1_555 1_555
H21_18 C34_18 1_555 1_555
H22_18 C34_18 1_555 1_555
H23_18 C34_18 1_555 1_555
C35_18 C29_18 1_555 1_555
H24_18 C35_18 1_555 1_555
H25_18 C35_18 1_555 1_555
H26_18 C35_18 1_555 1_555
C36_18 C26_18 1_555 1_555
H27_18 C36_18 1_555 1_555
O17 C37_18 1_555 1_555
C37_18 O15 1_555 1_555
C38_18 C37_18 1_555 1_555
C39_18 C38_18 1_555 1_555
H28_18 C39_18 1_555 1_555
C40_18 C39_18 1_555 1_555
C41_18 C40_18 1_555 1_555
C42_18 C41_18 1_555 1_555
C43_18 C42_18 1_555 1_555
C44_18 C40_18 1_555 1_555
C45_18 C44_18 1_555 1_555
H29_18 C45_18 1_555 1_555
C46_18 C41_18 1_555 1_555
H30_18 C46_18 1_555 1_555
H31_18 C46_18 1_555 1_555
H32_18 C46_18 1_555 1_555
C47_18 C41_18 1_555 1_555
H33_18 C47_18 1_555 1_555
H34_18 C47_18 1_555 1_555
H35_18 C47_18 1_555 1_555
C48_18 C38_18 1_555 1_555
H36_18 C48_18 1_555 1_555
O15_20 C49_18 1_555 1_555
O17_28 C49_18 1_555 1_555
C49_18 C50_18 1_555 1_555
C50_18 C51_18 1_555 1_555
C51_18 H37_18 1_555 1_555
C52_18 C51_18 1_555 1_555
C53_18 C52_18 1_555 1_555
C54_18 C53_18 1_555 1_555
C55_18 C42_18 1_555 1_555
C56_18 C52_18 1_555 1_555
C57_18 C56_18 1_555 1_555
H38_18 C57_18 1_555 1_555
C58_18 C53_18 1_555 1_555
H39_18 C58_18 1_555 1_555
H40_18 C58_18 1_555 1_555
H41_18 C58_18 1_555 1_555
C59_18 C53_18 1_555 1_555
H42_18 C59_18 1_555 1_555
H43_18 C59_18 1_555 1_555
H44_18 C59_18 1_555 1_555
C60_18 C50_18 1_555 1_555
H45_18 C60_18 1_555 1_555
O16_48 C61_18 1_555 1_555
C61_18 O19_4 1_555 1_555
C62_18 C61_18 1_555 1_555
C63_18 C62_18 1_555 1_555
H46_18 C63_18 1_555 1_555
C64_18 C63_18 1_555 1_555
C65_18 C64_18 1_555 1_555
C66_18 C43_18 1_555 1_555
C67_18 C54_18 1_555 1_555
C68_18 C64_18 1_555 1_555
C69_18 C68_18 1_555 1_555
H47_18 C69_18 1_555 1_555
C70_18 C65_18 1_555 1_555
H48_18 C70_18 1_555 1_555
H49_18 C70_18 1_555 1_555
H50_18 C70_18 1_555 1_555
C71_18 C65_18 1_555 1_555
H51_18 C71_18 1_555 1_555
H52_18 C71_18 1_555 1_555
H53_18 C71_18 1_555 1_555
C72_18 C62_18 1_555 1_555
H54_18 C72_18 1_555 1_555
C7_18 C8_18 1_555 1_555
C9_18 C12_18 1_555 1_555
C18_18 C19_18 1_555 1_555
C19_18 C20_18 1_555 1_555
C21_18 C24_18 1_555 1_555
C29_18 C30_18 1_555 1_555
C30_18 C31_18 1_555 1_555
C31_18 C32_18 1_555 1_555
C33_18 C36_18 1_555 1_555
C43_18 C44_18 1_555 1_555
C45_18 C48_18 1_555 1_555
C54_18 C55_18 1_555 1_555
C55_18 C56_18 1_555 1_555
C57_18 C60_18 1_555 1_555
C65_18 C66_18 1_555 1_555
C66_18 C67_18 1_555 1_555
C67_18 C68_18 1_555 1_555
C69_18 C72_18 1_555 1_555
O14 C1_19 1_555 1_555
O17_18 C1_19 1_555 1_555
C1_19 C2_19 1_555 1_555
C2_19 C3_19 1_555 1_555
C3_19 H1_19 1_555 1_555
C4_19 C3_19 1_555 1_555
C5_19 C4_19 1_555 1_555
C6_19 C5_19 1_555 1_555
C7_19 C6_19 1_555 1_555
C8_19 C4_19 1_555 1_555
C9_19 C8_19 1_555 1_555
H2_19 C9_19 1_555 1_555
C10_19 C5_19 1_555 1_555
H3_19 C10_19 1_555 1_555
H4_19 C10_19 1_555 1_555
H5_19 C10_19 1_555 1_555
C11_19 C5_19 1_555 1_555
H6_19 C11_19 1_555 1_555
H7_19 C11_19 1_555 1_555
H8_19 C11_19 1_555 1_555
C12_19 C2_19 1_555 1_555
H9_19 C12_19 1_555 1_555
O14_19 C13_19 1_555 1_555
O17_38 C13_19 1_555 1_555
C13_19 C14_19 1_555 1_555
C14_19 C15_19 1_555 1_555
C15_19 H10_19 1_555 1_555
C16_19 C15_19 1_555 1_555
C17_19 C16_19 1_555 1_555
C18_19 C17_19 1_555 1_555
C19_19 C6_19 1_555 1_555
C20_19 C16_19 1_555 1_555
C21_19 C20_19 1_555 1_555
H11_19 C21_19 1_555 1_555
C22_19 C17_19 1_555 1_555
H12_19 C22_19 1_555 1_555
H13_19 C22_19 1_555 1_555
H14_19 C22_19 1_555 1_555
C23_19 C17_19 1_555 1_555
H15_19 C23_19 1_555 1_555
H16_19 C23_19 1_555 1_555
H17_19 C23_19 1_555 1_555
C24_19 C14_19 1_555 1_555
H18_19 C24_19 1_555 1_555
O14_24 C25_19 1_555 1_555
O18_4 C25_19 1_555 1_555
C25_19 C26_19 1_555 1_555
C26_19 C27_19 1_555 1_555
C27_19 H19_19 1_555 1_555
C28_19 C27_19 1_555 1_555
C29_19 C28_19 1_555 1_555
C30_19 C7_19 1_555 1_555
C31_19 C18_19 1_555 1_555
C32_19 C28_19 1_555 1_555
C33_19 C32_19 1_555 1_555
H20_19 C33_19 1_555 1_555
C34_19 C29_19 1_555 1_555
H21_19 C34_19 1_555 1_555
H22_19 C34_19 1_555 1_555
H23_19 C34_19 1_555 1_555
C35_19 C29_19 1_555 1_555
H24_19 C35_19 1_555 1_555
H25_19 C35_19 1_555 1_555
H26_19 C35_19 1_555 1_555
C36_19 C26_19 1_555 1_555
H27_19 C36_19 1_555 1_555
O17_4 C37_19 1_555 1_555
C37_19 O15_4 1_555 1_555
C38_19 C37_19 1_555 1_555
C39_19 C38_19 1_555 1_555
H28_19 C39_19 1_555 1_555
C40_19 C39_19 1_555 1_555
C41_19 C40_19 1_555 1_555
C42_19 C41_19 1_555 1_555
C43_19 C42_19 1_555 1_555
C44_19 C40_19 1_555 1_555
C45_19 C44_19 1_555 1_555
H29_19 C45_19 1_555 1_555
C46_19 C41_19 1_555 1_555
H30_19 C46_19 1_555 1_555
H31_19 C46_19 1_555 1_555
H32_19 C46_19 1_555 1_555
C47_19 C41_19 1_555 1_555
H33_19 C47_19 1_555 1_555
H34_19 C47_19 1_555 1_555
H35_19 C47_19 1_555 1_555
C48_19 C38_19 1_555 1_555
H36_19 C48_19 1_555 1_555
O15_19 C49_19 1_555 1_555
O17_27 C49_19 1_555 1_555
C49_19 C50_19 1_555 1_555
C50_19 C51_19 1_555 1_555
C51_19 H37_19 1_555 1_555
C52_19 C51_19 1_555 1_555
C53_19 C52_19 1_555 1_555
C54_19 C53_19 1_555 1_555
C55_19 C42_19 1_555 1_555
C56_19 C52_19 1_555 1_555
C57_19 C56_19 1_555 1_555
H38_19 C57_19 1_555 1_555
C58_19 C53_19 1_555 1_555
H39_19 C58_19 1_555 1_555
H40_19 C58_19 1_555 1_555
H41_19 C58_19 1_555 1_555
C59_19 C53_19 1_555 1_555
H42_19 C59_19 1_555 1_555
H43_19 C59_19 1_555 1_555
H44_19 C59_19 1_555 1_555
C60_19 C50_19 1_555 1_555
H45_19 C60_19 1_555 1_555
O16_45 C61_19 1_555 1_555
C61_19 O19 1_555 1_555
C62_19 C61_19 1_555 1_555
C63_19 C62_19 1_555 1_555
H46_19 C63_19 1_555 1_555
C64_19 C63_19 1_555 1_555
C65_19 C64_19 1_555 1_555
C66_19 C43_19 1_555 1_555
C67_19 C54_19 1_555 1_555
C68_19 C64_19 1_555 1_555
C69_19 C68_19 1_555 1_555
H47_19 C69_19 1_555 1_555
C70_19 C65_19 1_555 1_555
H48_19 C70_19 1_555 1_555
H49_19 C70_19 1_555 1_555
H50_19 C70_19 1_555 1_555
C71_19 C65_19 1_555 1_555
H51_19 C71_19 1_555 1_555
H52_19 C71_19 1_555 1_555
H53_19 C71_19 1_555 1_555
C72_19 C62_19 1_555 1_555
H54_19 C72_19 1_555 1_555
C7_19 C8_19 1_555 1_555
C9_19 C12_19 1_555 1_555
C18_19 C19_19 1_555 1_555
C19_19 C20_19 1_555 1_555
C21_19 C24_19 1_555 1_555
C29_19 C30_19 1_555 1_555
C30_19 C31_19 1_555 1_555
C31_19 C32_19 1_555 1_555
C33_19 C36_19 1_555 1_555
C43_19 C44_19 1_555 1_555
C45_19 C48_19 1_555 1_555
C54_19 C55_19 1_555 1_555
C55_19 C56_19 1_555 1_555
C57_19 C60_19 1_555 1_555
C65_19 C66_19 1_555 1_555
C66_19 C67_19 1_555 1_555
C67_19 C68_19 1_555 1_555
C69_19 C72_19 1_555 1_555
O14_2 C1_20 1_555 1_555
O17_20 C1_20 1_555 1_555
C1_20 C2_20 1_555 1_555
C2_20 C3_20 1_555 1_555
C3_20 H1_20 1_555 1_555
C4_20 C3_20 1_555 1_555
C5_20 C4_20 1_555 1_555
C6_20 C5_20 1_555 1_555
C7_20 C6_20 1_555 1_555
C8_20 C4_20 1_555 1_555
C9_20 C8_20 1_555 1_555
H2_20 C9_20 1_555 1_555
C10_20 C5_20 1_555 1_555
H3_20 C10_20 1_555 1_555
H4_20 C10_20 1_555 1_555
H5_20 C10_20 1_555 1_555
C11_20 C5_20 1_555 1_555
H6_20 C11_20 1_555 1_555
H7_20 C11_20 1_555 1_555
H8_20 C11_20 1_555 1_555
C12_20 C2_20 1_555 1_555
H9_20 C12_20 1_555 1_555
O14_18 C13_20 1_555 1_555
O17_39 C13_20 1_555 1_555
C13_20 C14_20 1_555 1_555
C14_20 C15_20 1_555 1_555
C15_20 H10_20 1_555 1_555
C16_20 C15_20 1_555 1_555
C17_20 C16_20 1_555 1_555
C18_20 C17_20 1_555 1_555
C19_20 C6_20 1_555 1_555
C20_20 C16_20 1_555 1_555
C21_20 C20_20 1_555 1_555
H11_20 C21_20 1_555 1_555
C22_20 C17_20 1_555 1_555
H12_20 C22_20 1_555 1_555
H13_20 C22_20 1_555 1_555
H14_20 C22_20 1_555 1_555
C23_20 C17_20 1_555 1_555
H15_20 C23_20 1_555 1_555
H16_20 C23_20 1_555 1_555
H17_20 C23_20 1_555 1_555
C24_20 C14_20 1_555 1_555
H18_20 C24_20 1_555 1_555
O14_22 C25_20 1_555 1_555
O18_3 C25_20 1_555 1_555
C25_20 C26_20 1_555 1_555
C26_20 C27_20 1_555 1_555
C27_20 H19_20 1_555 1_555
C28_20 C27_20 1_555 1_555
C29_20 C28_20 1_555 1_555
C30_20 C7_20 1_555 1_555
C31_20 C18_20 1_555 1_555
C32_20 C28_20 1_555 1_555
C33_20 C32_20 1_555 1_555
H20_20 C33_20 1_555 1_555
C34_20 C29_20 1_555 1_555
H21_20 C34_20 1_555 1_555
H22_20 C34_20 1_555 1_555
H23_20 C34_20 1_555 1_555
C35_20 C29_20 1_555 1_555
H24_20 C35_20 1_555 1_555
H25_20 C35_20 1_555 1_555
H26_20 C35_20 1_555 1_555
C36_20 C26_20 1_555 1_555
H27_20 C36_20 1_555 1_555
O17_3 C37_20 1_555 1_555
C37_20 O15_3 1_555 1_555
C38_20 C37_20 1_555 1_555
C39_20 C38_20 1_555 1_555
H28_20 C39_20 1_555 1_555
C40_20 C39_20 1_555 1_555
C41_20 C40_20 1_555 1_555
C42_20 C41_20 1_555 1_555
C43_20 C42_20 1_555 1_555
C44_20 C40_20 1_555 1_555
C45_20 C44_20 1_555 1_555
H29_20 C45_20 1_555 1_555
C46_20 C41_20 1_555 1_555
H30_20 C46_20 1_555 1_555
H31_20 C46_20 1_555 1_555
H32_20 C46_20 1_555 1_555
C47_20 C41_20 1_555 1_555
H33_20 C47_20 1_555 1_555
H34_20 C47_20 1_555 1_555
H35_20 C47_20 1_555 1_555
C48_20 C38_20 1_555 1_555
H36_20 C48_20 1_555 1_555
O15_17 C49_20 1_555 1_555
O17_25 C49_20 1_555 1_555
C49_20 C50_20 1_555 1_555
C50_20 C51_20 1_555 1_555
C51_20 H37_20 1_555 1_555
C52_20 C51_20 1_555 1_555
C53_20 C52_20 1_555 1_555
C54_20 C53_20 1_555 1_555
C55_20 C42_20 1_555 1_555
C56_20 C52_20 1_555 1_555
C57_20 C56_20 1_555 1_555
H38_20 C57_20 1_555 1_555
C58_20 C53_20 1_555 1_555
H39_20 C58_20 1_555 1_555
H40_20 C58_20 1_555 1_555
H41_20 C58_20 1_555 1_555
C59_20 C53_20 1_555 1_555
H42_20 C59_20 1_555 1_555
H43_20 C59_20 1_555 1_555
H44_20 C59_20 1_555 1_555
C60_20 C50_20 1_555 1_555
H45_20 C60_20 1_555 1_555
O16_47 C61_20 1_555 1_555
C61_20 O19_2 1_555 1_555
C62_20 C61_20 1_555 1_555
C63_20 C62_20 1_555 1_555
H46_20 C63_20 1_555 1_555
C64_20 C63_20 1_555 1_555
C65_20 C64_20 1_555 1_555
C66_20 C43_20 1_555 1_555
C67_20 C54_20 1_555 1_555
C68_20 C64_20 1_555 1_555
C69_20 C68_20 1_555 1_555
H47_20 C69_20 1_555 1_555
C70_20 C65_20 1_555 1_555
H48_20 C70_20 1_555 1_555
H49_20 C70_20 1_555 1_555
H50_20 C70_20 1_555 1_555
C71_20 C65_20 1_555 1_555
H51_20 C71_20 1_555 1_555
H52_20 C71_20 1_555 1_555
H53_20 C71_20 1_555 1_555
C72_20 C62_20 1_555 1_555
H54_20 C72_20 1_555 1_555
C7_20 C8_20 1_555 1_555
C9_20 C12_20 1_555 1_555
C18_20 C19_20 1_555 1_555
C19_20 C20_20 1_555 1_555
C21_20 C24_20 1_555 1_555
C29_20 C30_20 1_555 1_555
C30_20 C31_20 1_555 1_555
C31_20 C32_20 1_555 1_555
C33_20 C36_20 1_555 1_555
C43_20 C44_20 1_555 1_555
C45_20 C48_20 1_555 1_555
C54_20 C55_20 1_555 1_555
C55_20 C56_20 1_555 1_555
C57_20 C60_20 1_555 1_555
C65_20 C66_20 1_555 1_555
C66_20 C67_20 1_555 1_555
C67_20 C68_20 1_555 1_555
C69_20 C72_20 1_555 1_555
O14_7 C1_21 1_555 1_555
O17_16 C1_21 1_555 1_555
C1_21 C2_21 1_555 1_555
C2_21 C3_21 1_555 1_555
C3_21 H1_21 1_555 1_555
C4_21 C3_21 1_555 1_555
C5_21 C4_21 1_555 1_555
C6_21 C5_21 1_555 1_555
C7_21 C6_21 1_555 1_555
C8_21 C4_21 1_555 1_555
C9_21 C8_21 1_555 1_555
H2_21 C9_21 1_555 1_555
C10_21 C5_21 1_555 1_555
H3_21 C10_21 1_555 1_555
H4_21 C10_21 1_555 1_555
H5_21 C10_21 1_555 1_555
C11_21 C5_21 1_555 1_555
H6_21 C11_21 1_555 1_555
H7_21 C11_21 1_555 1_555
H8_21 C11_21 1_555 1_555
C12_21 C2_21 1_555 1_555
H9_21 C12_21 1_555 1_555
O16_31 C13_21 1_555 1_555
O17_47 C13_21 1_555 1_555
C13_21 C14_21 1_555 1_555
C14_21 C15_21 1_555 1_555
C15_21 H10_21 1_555 1_555
C16_21 C15_21 1_555 1_555
C17_21 C16_21 1_555 1_555
C18_21 C17_21 1_555 1_555
C19_21 C6_21 1_555 1_555
C20_21 C16_21 1_555 1_555
C21_21 C20_21 1_555 1_555
H11_21 C21_21 1_555 1_555
C22_21 C17_21 1_555 1_555
H12_21 C22_21 1_555 1_555
H13_21 C22_21 1_555 1_555
H14_21 C22_21 1_555 1_555
C23_21 C17_21 1_555 1_555
H15_21 C23_21 1_555 1_555
H16_21 C23_21 1_555 1_555
H17_21 C23_21 1_555 1_555
C24_21 C14_21 1_555 1_555
H18_21 C24_21 1_555 1_555
O16_25 C25_21 1_555 1_555
O18_6 C25_21 1_555 1_555
C25_21 C26_21 1_555 1_555
C26_21 C27_21 1_555 1_555
C27_21 H19_21 1_555 1_555
C28_21 C27_21 1_555 1_555
C29_21 C28_21 1_555 1_555
C30_21 C7_21 1_555 1_555
C31_21 C18_21 1_555 1_555
C32_21 C28_21 1_555 1_555
C33_21 C32_21 1_555 1_555
H20_21 C33_21 1_555 1_555
C34_21 C29_21 1_555 1_555
H21_21 C34_21 1_555 1_555
H22_21 C34_21 1_555 1_555
H23_21 C34_21 1_555 1_555
C35_21 C29_21 1_555 1_555
H24_21 C35_21 1_555 1_555
H25_21 C35_21 1_555 1_555
H26_21 C35_21 1_555 1_555
C36_21 C26_21 1_555 1_555
H27_21 C36_21 1_555 1_555
O17_6 C37_21 1_555 1_555
C37_21 O15_6 1_555 1_555
C38_21 C37_21 1_555 1_555
C39_21 C38_21 1_555 1_555
H28_21 C39_21 1_555 1_555
C40_21 C39_21 1_555 1_555
C41_21 C40_21 1_555 1_555
C42_21 C41_21 1_555 1_555
C43_21 C42_21 1_555 1_555
C44_21 C40_21 1_555 1_555
C45_21 C44_21 1_555 1_555
H29_21 C45_21 1_555 1_555
C46_21 C41_21 1_555 1_555
H30_21 C46_21 1_555 1_555
H31_21 C46_21 1_555 1_555
H32_21 C46_21 1_555 1_555
C47_21 C41_21 1_555 1_555
H33_21 C47_21 1_555 1_555
H34_21 C47_21 1_555 1_555
H35_21 C47_21 1_555 1_555
C48_21 C38_21 1_555 1_555
H36_21 C48_21 1_555 1_555
O15_22 C49_21 1_555 1_555
O19_15 C49_21 1_555 1_555
C49_21 C50_21 1_555 1_555
C50_21 C51_21 1_555 1_555
C51_21 H37_21 1_555 1_555
C52_21 C51_21 1_555 1_555
C53_21 C52_21 1_555 1_555
C54_21 C53_21 1_555 1_555
C55_21 C42_21 1_555 1_555
C56_21 C52_21 1_555 1_555
C57_21 C56_21 1_555 1_555
H38_21 C57_21 1_555 1_555
C58_21 C53_21 1_555 1_555
H39_21 C58_21 1_555 1_555
H40_21 C58_21 1_555 1_555
H41_21 C58_21 1_555 1_555
C59_21 C53_21 1_555 1_555
H42_21 C59_21 1_555 1_555
H43_21 C59_21 1_555 1_555
H44_21 C59_21 1_555 1_555
C60_21 C50_21 1_555 1_555
H45_21 C60_21 1_555 1_555
O15_14 C61_21 1_555 1_555
C61_21 O19_7 1_555 1_555
C62_21 C61_21 1_555 1_555
C63_21 C62_21 1_555 1_555
H46_21 C63_21 1_555 1_555
C64_21 C63_21 1_555 1_555
C65_21 C64_21 1_555 1_555
C66_21 C43_21 1_555 1_555
C67_21 C54_21 1_555 1_555
C68_21 C64_21 1_555 1_555
C69_21 C68_21 1_555 1_555
H47_21 C69_21 1_555 1_555
C70_21 C65_21 1_555 1_555
H48_21 C70_21 1_555 1_555
H49_21 C70_21 1_555 1_555
H50_21 C70_21 1_555 1_555
C71_21 C65_21 1_555 1_555
H51_21 C71_21 1_555 1_555
H52_21 C71_21 1_555 1_555
H53_21 C71_21 1_555 1_555
C72_21 C62_21 1_555 1_555
H54_21 C72_21 1_555 1_555
C7_21 C8_21 1_555 1_555
C9_21 C12_21 1_555 1_555
C18_21 C19_21 1_555 1_555
C19_21 C20_21 1_555 1_555
C21_21 C24_21 1_555 1_555
C29_21 C30_21 1_555 1_555
C30_21 C31_21 1_555 1_555
C31_21 C32_21 1_555 1_555
C33_21 C36_21 1_555 1_555
C43_21 C44_21 1_555 1_555
C45_21 C48_21 1_555 1_555
C54_21 C55_21 1_555 1_555
C55_21 C56_21 1_555 1_555
C57_21 C60_21 1_555 1_555
C65_21 C66_21 1_555 1_555
C66_21 C67_21 1_555 1_555
C67_21 C68_21 1_555 1_555
C69_21 C72_21 1_555 1_555
O14_8 C1_22 1_555 1_555
O17_14 C1_22 1_555 1_555
C1_22 C2_22 1_555 1_555
C2_22 C3_22 1_555 1_555
C3_22 H1_22 1_555 1_555
C4_22 C3_22 1_555 1_555
C5_22 C4_22 1_555 1_555
C6_22 C5_22 1_555 1_555
C7_22 C6_22 1_555 1_555
C8_22 C4_22 1_555 1_555
C9_22 C8_22 1_555 1_555
H2_22 C9_22 1_555 1_555
C10_22 C5_22 1_555 1_555
H3_22 C10_22 1_555 1_555
H4_22 C10_22 1_555 1_555
H5_22 C10_22 1_555 1_555
C11_22 C5_22 1_555 1_555
H6_22 C11_22 1_555 1_555
H7_22 C11_22 1_555 1_555
H8_22 C11_22 1_555 1_555
C12_22 C2_22 1_555 1_555
H9_22 C12_22 1_555 1_555
O16_29 C13_22 1_555 1_555
O17_46 C13_22 1_555 1_555
C13_22 C14_22 1_555 1_555
C14_22 C15_22 1_555 1_555
C15_22 H10_22 1_555 1_555
C16_22 C15_22 1_555 1_555
C17_22 C16_22 1_555 1_555
C18_22 C17_22 1_555 1_555
C19_22 C6_22 1_555 1_555
C20_22 C16_22 1_555 1_555
C21_22 C20_22 1_555 1_555
H11_22 C21_22 1_555 1_555
C22_22 C17_22 1_555 1_555
H12_22 C22_22 1_555 1_555
H13_22 C22_22 1_555 1_555
H14_22 C22_22 1_555 1_555
C23_22 C17_22 1_555 1_555
H15_22 C23_22 1_555 1_555
H16_22 C23_22 1_555 1_555
H17_22 C23_22 1_555 1_555
C24_22 C14_22 1_555 1_555
H18_22 C24_22 1_555 1_555
O16_26 C25_22 1_555 1_555
O18_5 C25_22 1_555 1_555
C25_22 C26_22 1_555 1_555
C26_22 C27_22 1_555 1_555
C27_22 H19_22 1_555 1_555
C28_22 C27_22 1_555 1_555
C29_22 C28_22 1_555 1_555
C30_22 C7_22 1_555 1_555
C31_22 C18_22 1_555 1_555
C32_22 C28_22 1_555 1_555
C33_22 C32_22 1_555 1_555
H20_22 C33_22 1_555 1_555
C34_22 C29_22 1_555 1_555
H21_22 C34_22 1_555 1_555
H22_22 C34_22 1_555 1_555
H23_22 C34_22 1_555 1_555
C35_22 C29_22 1_555 1_555
H24_22 C35_22 1_555 1_555
H25_22 C35_22 1_555 1_555
H26_22 C35_22 1_555 1_555
C36_22 C26_22 1_555 1_555
H27_22 C36_22 1_555 1_555
O17_5 C37_22 1_555 1_555
C37_22 O15_5 1_555 1_555
C38_22 C37_22 1_555 1_555
C39_22 C38_22 1_555 1_555
H28_22 C39_22 1_555 1_555
C40_22 C39_22 1_555 1_555
C41_22 C40_22 1_555 1_555
C42_22 C41_22 1_555 1_555
C43_22 C42_22 1_555 1_555
C44_22 C40_22 1_555 1_555
C45_22 C44_22 1_555 1_555
H29_22 C45_22 1_555 1_555
C46_22 C41_22 1_555 1_555
H30_22 C46_22 1_555 1_555
H31_22 C46_22 1_555 1_555
H32_22 C46_22 1_555 1_555
C47_22 C41_22 1_555 1_555
H33_22 C47_22 1_555 1_555
H34_22 C47_22 1_555 1_555
H35_22 C47_22 1_555 1_555
C48_22 C38_22 1_555 1_555
H36_22 C48_22 1_555 1_555
O15_24 C49_22 1_555 1_555
O19_14 C49_22 1_555 1_555
C49_22 C50_22 1_555 1_555
C50_22 C51_22 1_555 1_555
C51_22 H37_22 1_555 1_555
C52_22 C51_22 1_555 1_555
C53_22 C52_22 1_555 1_555
C54_22 C53_22 1_555 1_555
C55_22 C42_22 1_555 1_555
C56_22 C52_22 1_555 1_555
C57_22 C56_22 1_555 1_555
H38_22 C57_22 1_555 1_555
C58_22 C53_22 1_555 1_555
H39_22 C58_22 1_555 1_555
H40_22 C58_22 1_555 1_555
H41_22 C58_22 1_555 1_555
C59_22 C53_22 1_555 1_555
H42_22 C59_22 1_555 1_555
H43_22 C59_22 1_555 1_555
H44_22 C59_22 1_555 1_555
C60_22 C50_22 1_555 1_555
H45_22 C60_22 1_555 1_555
O15_15 C61_22 1_555 1_555
C61_22 O19_8 1_555 1_555
C62_22 C61_22 1_555 1_555
C63_22 C62_22 1_555 1_555
H46_22 C63_22 1_555 1_555
C64_22 C63_22 1_555 1_555
C65_22 C64_22 1_555 1_555
C66_22 C43_22 1_555 1_555
C67_22 C54_22 1_555 1_555
C68_22 C64_22 1_555 1_555
C69_22 C68_22 1_555 1_555
H47_22 C69_22 1_555 1_555
C70_22 C65_22 1_555 1_555
H48_22 C70_22 1_555 1_555
H49_22 C70_22 1_555 1_555
H50_22 C70_22 1_555 1_555
C71_22 C65_22 1_555 1_555
H51_22 C71_22 1_555 1_555
H52_22 C71_22 1_555 1_555
H53_22 C71_22 1_555 1_555
C72_22 C62_22 1_555 1_555
H54_22 C72_22 1_555 1_555
C7_22 C8_22 1_555 1_555
C9_22 C12_22 1_555 1_555
C18_22 C19_22 1_555 1_555
C19_22 C20_22 1_555 1_555
C21_22 C24_22 1_555 1_555
C29_22 C30_22 1_555 1_555
C30_22 C31_22 1_555 1_555
C31_22 C32_22 1_555 1_555
C33_22 C36_22 1_555 1_555
C43_22 C44_22 1_555 1_555
C45_22 C48_22 1_555 1_555
C54_22 C55_22 1_555 1_555
C55_22 C56_22 1_555 1_555
C57_22 C60_22 1_555 1_555
C65_22 C66_22 1_555 1_555
C66_22 C67_22 1_555 1_555
C67_22 C68_22 1_555 1_555
C69_22 C72_22 1_555 1_555
O14_5 C1_23 1_555 1_555
O17_15 C1_23 1_555 1_555
C1_23 C2_23 1_555 1_555
C2_23 C3_23 1_555 1_555
C3_23 H1_23 1_555 1_555
C4_23 C3_23 1_555 1_555
C5_23 C4_23 1_555 1_555
C6_23 C5_23 1_555 1_555
C7_23 C6_23 1_555 1_555
C8_23 C4_23 1_555 1_555
C9_23 C8_23 1_555 1_555
H2_23 C9_23 1_555 1_555
C10_23 C5_23 1_555 1_555
H3_23 C10_23 1_555 1_555
H4_23 C10_23 1_555 1_555
H5_23 C10_23 1_555 1_555
C11_23 C5_23 1_555 1_555
H6_23 C11_23 1_555 1_555
H7_23 C11_23 1_555 1_555
H8_23 C11_23 1_555 1_555
C12_23 C2_23 1_555 1_555
H9_23 C12_23 1_555 1_555
O16_30 C13_23 1_555 1_555
O17_45 C13_23 1_555 1_555
C13_23 C14_23 1_555 1_555
C14_23 C15_23 1_555 1_555
C15_23 H10_23 1_555 1_555
C16_23 C15_23 1_555 1_555
C17_23 C16_23 1_555 1_555
C18_23 C17_23 1_555 1_555
C19_23 C6_23 1_555 1_555
C20_23 C16_23 1_555 1_555
C21_23 C20_23 1_555 1_555
H11_23 C21_23 1_555 1_555
C22_23 C17_23 1_555 1_555
H12_23 C22_23 1_555 1_555
H13_23 C22_23 1_555 1_555
H14_23 C22_23 1_555 1_555
C23_23 C17_23 1_555 1_555
H15_23 C23_23 1_555 1_555
H16_23 C23_23 1_555 1_555
H17_23 C23_23 1_555 1_555
C24_23 C14_23 1_555 1_555
H18_23 C24_23 1_555 1_555
O16_27 C25_23 1_555 1_555
O18_8 C25_23 1_555 1_555
C25_23 C26_23 1_555 1_555
C26_23 C27_23 1_555 1_555
C27_23 H19_23 1_555 1_555
C28_23 C27_23 1_555 1_555
C29_23 C28_23 1_555 1_555
C30_23 C7_23 1_555 1_555
C31_23 C18_23 1_555 1_555
C32_23 C28_23 1_555 1_555
C33_23 C32_23 1_555 1_555
H20_23 C33_23 1_555 1_555
C34_23 C29_23 1_555 1_555
H21_23 C34_23 1_555 1_555
H22_23 C34_23 1_555 1_555
H23_23 C34_23 1_555 1_555
C35_23 C29_23 1_555 1_555
H24_23 C35_23 1_555 1_555
H25_23 C35_23 1_555 1_555
H26_23 C35_23 1_555 1_555
C36_23 C26_23 1_555 1_555
H27_23 C36_23 1_555 1_555
O17_8 C37_23 1_555 1_555
C37_23 O15_8 1_555 1_555
C38_23 C37_23 1_555 1_555
C39_23 C38_23 1_555 1_555
H28_23 C39_23 1_555 1_555
C40_23 C39_23 1_555 1_555
C41_23 C40_23 1_555 1_555
C42_23 C41_23 1_555 1_555
C43_23 C42_23 1_555 1_555
C44_23 C40_23 1_555 1_555
C45_23 C44_23 1_555 1_555
H29_23 C45_23 1_555 1_555
C46_23 C41_23 1_555 1_555
H30_23 C46_23 1_555 1_555
H31_23 C46_23 1_555 1_555
H32_23 C46_23 1_555 1_555
C47_23 C41_23 1_555 1_555
H33_23 C47_23 1_555 1_555
H34_23 C47_23 1_555 1_555
H35_23 C47_23 1_555 1_555
C48_23 C38_23 1_555 1_555
H36_23 C48_23 1_555 1_555
O15_23 C49_23 1_555 1_555
O19_16 C49_23 1_555 1_555
C49_23 C50_23 1_555 1_555
C50_23 C51_23 1_555 1_555
C51_23 H37_23 1_555 1_555
C52_23 C51_23 1_555 1_555
C53_23 C52_23 1_555 1_555
C54_23 C53_23 1_555 1_555
C55_23 C42_23 1_555 1_555
C56_23 C52_23 1_555 1_555
C57_23 C56_23 1_555 1_555
H38_23 C57_23 1_555 1_555
C58_23 C53_23 1_555 1_555
H39_23 C58_23 1_555 1_555
H40_23 C58_23 1_555 1_555
H41_23 C58_23 1_555 1_555
C59_23 C53_23 1_555 1_555
H42_23 C59_23 1_555 1_555
H43_23 C59_23 1_555 1_555
H44_23 C59_23 1_555 1_555
C60_23 C50_23 1_555 1_555
H45_23 C60_23 1_555 1_555
O15_13 C61_23 1_555 1_555
C61_23 O19_5 1_555 1_555
C62_23 C61_23 1_555 1_555
C63_23 C62_23 1_555 1_555
H46_23 C63_23 1_555 1_555
C64_23 C63_23 1_555 1_555
C65_23 C64_23 1_555 1_555
C66_23 C43_23 1_555 1_555
C67_23 C54_23 1_555 1_555
C68_23 C64_23 1_555 1_555
C69_23 C68_23 1_555 1_555
H47_23 C69_23 1_555 1_555
C70_23 C65_23 1_555 1_555
H48_23 C70_23 1_555 1_555
H49_23 C70_23 1_555 1_555
H50_23 C70_23 1_555 1_555
C71_23 C65_23 1_555 1_555
H51_23 C71_23 1_555 1_555
H52_23 C71_23 1_555 1_555
H53_23 C71_23 1_555 1_555
C72_23 C62_23 1_555 1_555
H54_23 C72_23 1_555 1_555
C7_23 C8_23 1_555 1_555
C9_23 C12_23 1_555 1_555
C18_23 C19_23 1_555 1_555
C19_23 C20_23 1_555 1_555
C21_23 C24_23 1_555 1_555
C29_23 C30_23 1_555 1_555
C30_23 C31_23 1_555 1_555
C31_23 C32_23 1_555 1_555
C33_23 C36_23 1_555 1_555
C43_23 C44_23 1_555 1_555
C45_23 C48_23 1_555 1_555
C54_23 C55_23 1_555 1_555
C55_23 C56_23 1_555 1_555
C57_23 C60_23 1_555 1_555
C65_23 C66_23 1_555 1_555
C66_23 C67_23 1_555 1_555
C67_23 C68_23 1_555 1_555
C69_23 C72_23 1_555 1_555
O14_6 C1_24 1_555 1_555
O17_13 C1_24 1_555 1_555
C1_24 C2_24 1_555 1_555
C2_24 C3_24 1_555 1_555
C3_24 H1_24 1_555 1_555
C4_24 C3_24 1_555 1_555
C5_24 C4_24 1_555 1_555
C6_24 C5_24 1_555 1_555
C7_24 C6_24 1_555 1_555
C8_24 C4_24 1_555 1_555
C9_24 C8_24 1_555 1_555
H2_24 C9_24 1_555 1_555
C10_24 C5_24 1_555 1_555
H3_24 C10_24 1_555 1_555
H4_24 C10_24 1_555 1_555
H5_24 C10_24 1_555 1_555
C11_24 C5_24 1_555 1_555
H6_24 C11_24 1_555 1_555
H7_24 C11_24 1_555 1_555
H8_24 C11_24 1_555 1_555
C12_24 C2_24 1_555 1_555
H9_24 C12_24 1_555 1_555
O16_32 C13_24 1_555 1_555
O17_48 C13_24 1_555 1_555
C13_24 C14_24 1_555 1_555
C14_24 C15_24 1_555 1_555
C15_24 H10_24 1_555 1_555
C16_24 C15_24 1_555 1_555
C17_24 C16_24 1_555 1_555
C18_24 C17_24 1_555 1_555
C19_24 C6_24 1_555 1_555
C20_24 C16_24 1_555 1_555
C21_24 C20_24 1_555 1_555
H11_24 C21_24 1_555 1_555
C22_24 C17_24 1_555 1_555
H12_24 C22_24 1_555 1_555
H13_24 C22_24 1_555 1_555
H14_24 C22_24 1_555 1_555
C23_24 C17_24 1_555 1_555
H15_24 C23_24 1_555 1_555
H16_24 C23_24 1_555 1_555
H17_24 C23_24 1_555 1_555
C24_24 C14_24 1_555 1_555
H18_24 C24_24 1_555 1_555
O16_28 C25_24 1_555 1_555
O18_7 C25_24 1_555 1_555
C25_24 C26_24 1_555 1_555
C26_24 C27_24 1_555 1_555
C27_24 H19_24 1_555 1_555
C28_24 C27_24 1_555 1_555
C29_24 C28_24 1_555 1_555
C30_24 C7_24 1_555 1_555
C31_24 C18_24 1_555 1_555
C32_24 C28_24 1_555 1_555
C33_24 C32_24 1_555 1_555
H20_24 C33_24 1_555 1_555
C34_24 C29_24 1_555 1_555
H21_24 C34_24 1_555 1_555
H22_24 C34_24 1_555 1_555
H23_24 C34_24 1_555 1_555
C35_24 C29_24 1_555 1_555
H24_24 C35_24 1_555 1_555
H25_24 C35_24 1_555 1_555
H26_24 C35_24 1_555 1_555
C36_24 C26_24 1_555 1_555
H27_24 C36_24 1_555 1_555
O17_7 C37_24 1_555 1_555
C37_24 O15_7 1_555 1_555
C38_24 C37_24 1_555 1_555
C39_24 C38_24 1_555 1_555
H28_24 C39_24 1_555 1_555
C40_24 C39_24 1_555 1_555
C41_24 C40_24 1_555 1_555
C42_24 C41_24 1_555 1_555
C43_24 C42_24 1_555 1_555
C44_24 C40_24 1_555 1_555
C45_24 C44_24 1_555 1_555
H29_24 C45_24 1_555 1_555
C46_24 C41_24 1_555 1_555
H30_24 C46_24 1_555 1_555
H31_24 C46_24 1_555 1_555
H32_24 C46_24 1_555 1_555
C47_24 C41_24 1_555 1_555
H33_24 C47_24 1_555 1_555
H34_24 C47_24 1_555 1_555
H35_24 C47_24 1_555 1_555
C48_24 C38_24 1_555 1_555
H36_24 C48_24 1_555 1_555
O15_21 C49_24 1_555 1_555
O19_13 C49_24 1_555 1_555
C49_24 C50_24 1_555 1_555
C50_24 C51_24 1_555 1_555
C51_24 H37_24 1_555 1_555
C52_24 C51_24 1_555 1_555
C53_24 C52_24 1_555 1_555
C54_24 C53_24 1_555 1_555
C55_24 C42_24 1_555 1_555
C56_24 C52_24 1_555 1_555
C57_24 C56_24 1_555 1_555
H38_24 C57_24 1_555 1_555
C58_24 C53_24 1_555 1_555
H39_24 C58_24 1_555 1_555
H40_24 C58_24 1_555 1_555
H41_24 C58_24 1_555 1_555
C59_24 C53_24 1_555 1_555
H42_24 C59_24 1_555 1_555
H43_24 C59_24 1_555 1_555
H44_24 C59_24 1_555 1_555
C60_24 C50_24 1_555 1_555
H45_24 C60_24 1_555 1_555
O15_16 C61_24 1_555 1_555
C61_24 O19_6 1_555 1_555
C62_24 C61_24 1_555 1_555
C63_24 C62_24 1_555 1_555
H46_24 C63_24 1_555 1_555
C64_24 C63_24 1_555 1_555
C65_24 C64_24 1_555 1_555
C66_24 C43_24 1_555 1_555
C67_24 C54_24 1_555 1_555
C68_24 C64_24 1_555 1_555
C69_24 C68_24 1_555 1_555
H47_24 C69_24 1_555 1_555
C70_24 C65_24 1_555 1_555
H48_24 C70_24 1_555 1_555
H49_24 C70_24 1_555 1_555
H50_24 C70_24 1_555 1_555
C71_24 C65_24 1_555 1_555
H51_24 C71_24 1_555 1_555
H52_24 C71_24 1_555 1_555
H53_24 C71_24 1_555 1_555
C72_24 C62_24 1_555 1_555
H54_24 C72_24 1_555 1_555
C7_24 C8_24 1_555 1_555
C9_24 C12_24 1_555 1_555
C18_24 C19_24 1_555 1_555
C19_24 C20_24 1_555 1_555
C21_24 C24_24 1_555 1_555
C29_24 C30_24 1_555 1_555
C30_24 C31_24 1_555 1_555
C31_24 C32_24 1_555 1_555
C33_24 C36_24 1_555 1_555
C43_24 C44_24 1_555 1_555
C45_24 C48_24 1_555 1_555
C54_24 C55_24 1_555 1_555
C55_24 C56_24 1_555 1_555
C57_24 C60_24 1_555 1_555
C65_24 C66_24 1_555 1_555
C66_24 C67_24 1_555 1_555
C67_24 C68_24 1_555 1_555
C69_24 C72_24 1_555 1_555
O14_11 C1_25 1_555 1_555
O17_22 C1_25 1_555 1_555
C1_25 C2_25 1_555 1_555
C2_25 C3_25 1_555 1_555
C3_25 H1_25 1_555 1_555
C4_25 C3_25 1_555 1_555
C5_25 C4_25 1_555 1_555
C6_25 C5_25 1_555 1_555
C7_25 C6_25 1_555 1_555
C8_25 C4_25 1_555 1_555
C9_25 C8_25 1_555 1_555
H2_25 C9_25 1_555 1_555
C10_25 C5_25 1_555 1_555
H3_25 C10_25 1_555 1_555
H4_25 C10_25 1_555 1_555
H5_25 C10_25 1_555 1_555
C11_25 C5_25 1_555 1_555
H6_25 C11_25 1_555 1_555
H7_25 C11_25 1_555 1_555
H8_25 C11_25 1_555 1_555
C12_25 C2_25 1_555 1_555
H9_25 C12_25 1_555 1_555
O16_43 C13_25 1_555 1_555
O18_16 C13_25 1_555 1_555
C13_25 C14_25 1_555 1_555
C14_25 C15_25 1_555 1_555
C15_25 H10_25 1_555 1_555
C16_25 C15_25 1_555 1_555
C17_25 C16_25 1_555 1_555
C18_25 C17_25 1_555 1_555
C19_25 C6_25 1_555 1_555
C20_25 C16_25 1_555 1_555
C21_25 C20_25 1_555 1_555
H11_25 C21_25 1_555 1_555
C22_25 C17_25 1_555 1_555
H12_25 C22_25 1_555 1_555
H13_25 C22_25 1_555 1_555
H14_25 C22_25 1_555 1_555
C23_25 C17_25 1_555 1_555
H15_25 C23_25 1_555 1_555
H16_25 C23_25 1_555 1_555
H17_25 C23_25 1_555 1_555
C24_25 C14_25 1_555 1_555
H18_25 C24_25 1_555 1_555
O14_13 C25_25 1_555 1_555
O18_10 C25_25 1_555 1_555
C25_25 C26_25 1_555 1_555
C26_25 C27_25 1_555 1_555
C27_25 H19_25 1_555 1_555
C28_25 C27_25 1_555 1_555
C29_25 C28_25 1_555 1_555
C30_25 C7_25 1_555 1_555
C31_25 C18_25 1_555 1_555
C32_25 C28_25 1_555 1_555
C33_25 C32_25 1_555 1_555
H20_25 C33_25 1_555 1_555
C34_25 C29_25 1_555 1_555
H21_25 C34_25 1_555 1_555
H22_25 C34_25 1_555 1_555
H23_25 C34_25 1_555 1_555
C35_25 C29_25 1_555 1_555
H24_25 C35_25 1_555 1_555
H25_25 C35_25 1_555 1_555
H26_25 C35_25 1_555 1_555
C36_25 C26_25 1_555 1_555
H27_25 C36_25 1_555 1_555
O17_10 C37_25 1_555 1_555
C37_25 O15_10 1_555 1_555
C38_25 C37_25 1_555 1_555
C39_25 C38_25 1_555 1_555
H28_25 C39_25 1_555 1_555
C40_25 C39_25 1_555 1_555
C41_25 C40_25 1_555 1_555
C42_25 C41_25 1_555 1_555
C43_25 C42_25 1_555 1_555
C44_25 C40_25 1_555 1_555
C45_25 C44_25 1_555 1_555
H29_25 C45_25 1_555 1_555
C46_25 C41_25 1_555 1_555
H30_25 C46_25 1_555 1_555
H31_25 C46_25 1_555 1_555
H32_25 C46_25 1_555 1_555
C47_25 C41_25 1_555 1_555
H33_25 C47_25 1_555 1_555
H34_25 C47_25 1_555 1_555
H35_25 C47_25 1_555 1_555
C48_25 C38_25 1_555 1_555
H36_25 C48_25 1_555 1_555
O16_35 C49_25 1_555 1_555
O19_23 C49_25 1_555 1_555
C49_25 C50_25 1_555 1_555
C50_25 C51_25 1_555 1_555
C51_25 H37_25 1_555 1_555
C52_25 C51_25 1_555 1_555
C53_25 C52_25 1_555 1_555
C54_25 C53_25 1_555 1_555
C55_25 C42_25 1_555 1_555
C56_25 C52_25 1_555 1_555
C57_25 C56_25 1_555 1_555
H38_25 C57_25 1_555 1_555
C58_25 C53_25 1_555 1_555
H39_25 C58_25 1_555 1_555
H40_25 C58_25 1_555 1_555
H41_25 C58_25 1_555 1_555
C59_25 C53_25 1_555 1_555
H42_25 C59_25 1_555 1_555
H43_25 C59_25 1_555 1_555
H44_25 C59_25 1_555 1_555
C60_25 C50_25 1_555 1_555
H45_25 C60_25 1_555 1_555
O16_37 C61_25 1_555 1_555
C61_25 O19_11 1_555 1_555
C62_25 C61_25 1_555 1_555
C63_25 C62_25 1_555 1_555
H46_25 C63_25 1_555 1_555
C64_25 C63_25 1_555 1_555
C65_25 C64_25 1_555 1_555
C66_25 C43_25 1_555 1_555
C67_25 C54_25 1_555 1_555
C68_25 C64_25 1_555 1_555
C69_25 C68_25 1_555 1_555
H47_25 C69_25 1_555 1_555
C70_25 C65_25 1_555 1_555
H48_25 C70_25 1_555 1_555
H49_25 C70_25 1_555 1_555
H50_25 C70_25 1_555 1_555
C71_25 C65_25 1_555 1_555
H51_25 C71_25 1_555 1_555
H52_25 C71_25 1_555 1_555
H53_25 C71_25 1_555 1_555
C72_25 C62_25 1_555 1_555
H54_25 C72_25 1_555 1_555
C7_25 C8_25 1_555 1_555
C9_25 C12_25 1_555 1_555
C18_25 C19_25 1_555 1_555
C19_25 C20_25 1_555 1_555
C21_25 C24_25 1_555 1_555
C29_25 C30_25 1_555 1_555
C30_25 C31_25 1_555 1_555
C31_25 C32_25 1_555 1_555
C33_25 C36_25 1_555 1_555
C43_25 C44_25 1_555 1_555
C45_25 C48_25 1_555 1_555
C54_25 C55_25 1_555 1_555
C55_25 C56_25 1_555 1_555
C57_25 C60_25 1_555 1_555
C65_25 C66_25 1_555 1_555
C66_25 C67_25 1_555 1_555
C67_25 C68_25 1_555 1_555
C69_25 C72_25 1_555 1_555
O14_12 C1_26 1_555 1_555
O17_24 C1_26 1_555 1_555
C1_26 C2_26 1_555 1_555
C2_26 C3_26 1_555 1_555
C3_26 H1_26 1_555 1_555
C4_26 C3_26 1_555 1_555
C5_26 C4_26 1_555 1_555
C6_26 C5_26 1_555 1_555
C7_26 C6_26 1_555 1_555
C8_26 C4_26 1_555 1_555
C9_26 C8_26 1_555 1_555
H2_26 C9_26 1_555 1_555
C10_26 C5_26 1_555 1_555
H3_26 C10_26 1_555 1_555
H4_26 C10_26 1_555 1_555
H5_26 C10_26 1_555 1_555
C11_26 C5_26 1_555 1_555
H6_26 C11_26 1_555 1_555
H7_26 C11_26 1_555 1_555
H8_26 C11_26 1_555 1_555
C12_26 C2_26 1_555 1_555
H9_26 C12_26 1_555 1_555
O16_41 C13_26 1_555 1_555
O18_14 C13_26 1_555 1_555
C13_26 C14_26 1_555 1_555
C14_26 C15_26 1_555 1_555
C15_26 H10_26 1_555 1_555
C16_26 C15_26 1_555 1_555
C17_26 C16_26 1_555 1_555
C18_26 C17_26 1_555 1_555
C19_26 C6_26 1_555 1_555
C20_26 C16_26 1_555 1_555
C21_26 C20_26 1_555 1_555
H11_26 C21_26 1_555 1_555
C22_26 C17_26 1_555 1_555
H12_26 C22_26 1_555 1_555
H13_26 C22_26 1_555 1_555
H14_26 C22_26 1_555 1_555
C23_26 C17_26 1_555 1_555
H15_26 C23_26 1_555 1_555
H16_26 C23_26 1_555 1_555
H17_26 C23_26 1_555 1_555
C24_26 C14_26 1_555 1_555
H18_26 C24_26 1_555 1_555
O14_15 C25_26 1_555 1_555
O18_9 C25_26 1_555 1_555
C25_26 C26_26 1_555 1_555
C26_26 C27_26 1_555 1_555
C27_26 H19_26 1_555 1_555
C28_26 C27_26 1_555 1_555
C29_26 C28_26 1_555 1_555
C30_26 C7_26 1_555 1_555
C31_26 C18_26 1_555 1_555
C32_26 C28_26 1_555 1_555
C33_26 C32_26 1_555 1_555
H20_26 C33_26 1_555 1_555
C34_26 C29_26 1_555 1_555
H21_26 C34_26 1_555 1_555
H22_26 C34_26 1_555 1_555
H23_26 C34_26 1_555 1_555
C35_26 C29_26 1_555 1_555
H24_26 C35_26 1_555 1_555
H25_26 C35_26 1_555 1_555
H26_26 C35_26 1_555 1_555
C36_26 C26_26 1_555 1_555
H27_26 C36_26 1_555 1_555
O17_9 C37_26 1_555 1_555
C37_26 O15_9 1_555 1_555
C38_26 C37_26 1_555 1_555
C39_26 C38_26 1_555 1_555
H28_26 C39_26 1_555 1_555
C40_26 C39_26 1_555 1_555
C41_26 C40_26 1_555 1_555
C42_26 C41_26 1_555 1_555
C43_26 C42_26 1_555 1_555
C44_26 C40_26 1_555 1_555
C45_26 C44_26 1_555 1_555
H29_26 C45_26 1_555 1_555
C46_26 C41_26 1_555 1_555
H30_26 C46_26 1_555 1_555
H31_26 C46_26 1_555 1_555
H32_26 C46_26 1_555 1_555
C47_26 C41_26 1_555 1_555
H33_26 C47_26 1_555 1_555
H34_26 C47_26 1_555 1_555
H35_26 C47_26 1_555 1_555
C48_26 C38_26 1_555 1_555
H36_26 C48_26 1_555 1_555
O16_34 C49_26 1_555 1_555
O19_22 C49_26 1_555 1_555
C49_26 C50_26 1_555 1_555
C50_26 C51_26 1_555 1_555
C51_26 H37_26 1_555 1_555
C52_26 C51_26 1_555 1_555
C53_26 C52_26 1_555 1_555
C54_26 C53_26 1_555 1_555
C55_26 C42_26 1_555 1_555
C56_26 C52_26 1_555 1_555
C57_26 C56_26 1_555 1_555
H38_26 C57_26 1_555 1_555
C58_26 C53_26 1_555 1_555
H39_26 C58_26 1_555 1_555
H40_26 C58_26 1_555 1_555
H41_26 C58_26 1_555 1_555
C59_26 C53_26 1_555 1_555
H42_26 C59_26 1_555 1_555
H43_26 C59_26 1_555 1_555
H44_26 C59_26 1_555 1_555
C60_26 C50_26 1_555 1_555
H45_26 C60_26 1_555 1_555
O16_39 C61_26 1_555 1_555
C61_26 O19_12 1_555 1_555
C62_26 C61_26 1_555 1_555
C63_26 C62_26 1_555 1_555
H46_26 C63_26 1_555 1_555
C64_26 C63_26 1_555 1_555
C65_26 C64_26 1_555 1_555
C66_26 C43_26 1_555 1_555
C67_26 C54_26 1_555 1_555
C68_26 C64_26 1_555 1_555
C69_26 C68_26 1_555 1_555
H47_26 C69_26 1_555 1_555
C70_26 C65_26 1_555 1_555
H48_26 C70_26 1_555 1_555
H49_26 C70_26 1_555 1_555
H50_26 C70_26 1_555 1_555
C71_26 C65_26 1_555 1_555
H51_26 C71_26 1_555 1_555
H52_26 C71_26 1_555 1_555
H53_26 C71_26 1_555 1_555
C72_26 C62_26 1_555 1_555
H54_26 C72_26 1_555 1_555
C7_26 C8_26 1_555 1_555
C9_26 C12_26 1_555 1_555
C18_26 C19_26 1_555 1_555
C19_26 C20_26 1_555 1_555
C21_26 C24_26 1_555 1_555
C29_26 C30_26 1_555 1_555
C30_26 C31_26 1_555 1_555
C31_26 C32_26 1_555 1_555
C33_26 C36_26 1_555 1_555
C43_26 C44_26 1_555 1_555
C45_26 C48_26 1_555 1_555
C54_26 C55_26 1_555 1_555
C55_26 C56_26 1_555 1_555
C57_26 C60_26 1_555 1_555
C65_26 C66_26 1_555 1_555
C66_26 C67_26 1_555 1_555
C67_26 C68_26 1_555 1_555
C69_26 C72_26 1_555 1_555
O14_9 C1_27 1_555 1_555
O17_21 C1_27 1_555 1_555
C1_27 C2_27 1_555 1_555
C2_27 C3_27 1_555 1_555
C3_27 H1_27 1_555 1_555
C4_27 C3_27 1_555 1_555
C5_27 C4_27 1_555 1_555
C6_27 C5_27 1_555 1_555
C7_27 C6_27 1_555 1_555
C8_27 C4_27 1_555 1_555
C9_27 C8_27 1_555 1_555
H2_27 C9_27 1_555 1_555
C10_27 C5_27 1_555 1_555
H3_27 C10_27 1_555 1_555
H4_27 C10_27 1_555 1_555
H5_27 C10_27 1_555 1_555
C11_27 C5_27 1_555 1_555
H6_27 C11_27 1_555 1_555
H7_27 C11_27 1_555 1_555
H8_27 C11_27 1_555 1_555
C12_27 C2_27 1_555 1_555
H9_27 C12_27 1_555 1_555
O16_42 C13_27 1_555 1_555
O18_13 C13_27 1_555 1_555
C13_27 C14_27 1_555 1_555
C14_27 C15_27 1_555 1_555
C15_27 H10_27 1_555 1_555
C16_27 C15_27 1_555 1_555
C17_27 C16_27 1_555 1_555
C18_27 C17_27 1_555 1_555
C19_27 C6_27 1_555 1_555
C20_27 C16_27 1_555 1_555
C21_27 C20_27 1_555 1_555
H11_27 C21_27 1_555 1_555
C22_27 C17_27 1_555 1_555
H12_27 C22_27 1_555 1_555
H13_27 C22_27 1_555 1_555
H14_27 C22_27 1_555 1_555
C23_27 C17_27 1_555 1_555
H15_27 C23_27 1_555 1_555
H16_27 C23_27 1_555 1_555
H17_27 C23_27 1_555 1_555
C24_27 C14_27 1_555 1_555
H18_27 C24_27 1_555 1_555
O14_16 C25_27 1_555 1_555
O18_12 C25_27 1_555 1_555
C25_27 C26_27 1_555 1_555
C26_27 C27_27 1_555 1_555
C27_27 H19_27 1_555 1_555
C28_27 C27_27 1_555 1_555
C29_27 C28_27 1_555 1_555
C30_27 C7_27 1_555 1_555
C31_27 C18_27 1_555 1_555
C32_27 C28_27 1_555 1_555
C33_27 C32_27 1_555 1_555
H20_27 C33_27 1_555 1_555
C34_27 C29_27 1_555 1_555
H21_27 C34_27 1_555 1_555
H22_27 C34_27 1_555 1_555
H23_27 C34_27 1_555 1_555
C35_27 C29_27 1_555 1_555
H24_27 C35_27 1_555 1_555
H25_27 C35_27 1_555 1_555
H26_27 C35_27 1_555 1_555
C36_27 C26_27 1_555 1_555
H27_27 C36_27 1_555 1_555
O17_12 C37_27 1_555 1_555
C37_27 O15_12 1_555 1_555
C38_27 C37_27 1_555 1_555
C39_27 C38_27 1_555 1_555
H28_27 C39_27 1_555 1_555
C40_27 C39_27 1_555 1_555
C41_27 C40_27 1_555 1_555
C42_27 C41_27 1_555 1_555
C43_27 C42_27 1_555 1_555
C44_27 C40_27 1_555 1_555
C45_27 C44_27 1_555 1_555
H29_27 C45_27 1_555 1_555
C46_27 C41_27 1_555 1_555
H30_27 C46_27 1_555 1_555
H31_27 C46_27 1_555 1_555
H32_27 C46_27 1_555 1_555
C47_27 C41_27 1_555 1_555
H33_27 C47_27 1_555 1_555
H34_27 C47_27 1_555 1_555
H35_27 C47_27 1_555 1_555
C48_27 C38_27 1_555 1_555
H36_27 C48_27 1_555 1_555
O16_33 C49_27 1_555 1_555
O19_24 C49_27 1_555 1_555
C49_27 C50_27 1_555 1_555
C50_27 C51_27 1_555 1_555
C51_27 H37_27 1_555 1_555
C52_27 C51_27 1_555 1_555
C53_27 C52_27 1_555 1_555
C54_27 C53_27 1_555 1_555
C55_27 C42_27 1_555 1_555
C56_27 C52_27 1_555 1_555
C57_27 C56_27 1_555 1_555
H38_27 C57_27 1_555 1_555
C58_27 C53_27 1_555 1_555
H39_27 C58_27 1_555 1_555
H40_27 C58_27 1_555 1_555
H41_27 C58_27 1_555 1_555
C59_27 C53_27 1_555 1_555
H42_27 C59_27 1_555 1_555
H43_27 C59_27 1_555 1_555
H44_27 C59_27 1_555 1_555
C60_27 C50_27 1_555 1_555
H45_27 C60_27 1_555 1_555
O16_38 C61_27 1_555 1_555
C61_27 O19_9 1_555 1_555
C62_27 C61_27 1_555 1_555
C63_27 C62_27 1_555 1_555
H46_27 C63_27 1_555 1_555
C64_27 C63_27 1_555 1_555
C65_27 C64_27 1_555 1_555
C66_27 C43_27 1_555 1_555
C67_27 C54_27 1_555 1_555
C68_27 C64_27 1_555 1_555
C69_27 C68_27 1_555 1_555
H47_27 C69_27 1_555 1_555
C70_27 C65_27 1_555 1_555
H48_27 C70_27 1_555 1_555
H49_27 C70_27 1_555 1_555
H50_27 C70_27 1_555 1_555
C71_27 C65_27 1_555 1_555
H51_27 C71_27 1_555 1_555
H52_27 C71_27 1_555 1_555
H53_27 C71_27 1_555 1_555
C72_27 C62_27 1_555 1_555
H54_27 C72_27 1_555 1_555
C7_27 C8_27 1_555 1_555
C9_27 C12_27 1_555 1_555
C18_27 C19_27 1_555 1_555
C19_27 C20_27 1_555 1_555
C21_27 C24_27 1_555 1_555
C29_27 C30_27 1_555 1_555
C30_27 C31_27 1_555 1_555
C31_27 C32_27 1_555 1_555
C33_27 C36_27 1_555 1_555
C43_27 C44_27 1_555 1_555
C45_27 C48_27 1_555 1_555
C54_27 C55_27 1_555 1_555
C55_27 C56_27 1_555 1_555
C57_27 C60_27 1_555 1_555
C65_27 C66_27 1_555 1_555
C66_27 C67_27 1_555 1_555
C67_27 C68_27 1_555 1_555
C69_27 C72_27 1_555 1_555
O14_10 C1_28 1_555 1_555
O17_23 C1_28 1_555 1_555
C1_28 C2_28 1_555 1_555
C2_28 C3_28 1_555 1_555
C3_28 H1_28 1_555 1_555
C4_28 C3_28 1_555 1_555
C5_28 C4_28 1_555 1_555
C6_28 C5_28 1_555 1_555
C7_28 C6_28 1_555 1_555
C8_28 C4_28 1_555 1_555
C9_28 C8_28 1_555 1_555
H2_28 C9_28 1_555 1_555
C10_28 C5_28 1_555 1_555
H3_28 C10_28 1_555 1_555
H4_28 C10_28 1_555 1_555
H5_28 C10_28 1_555 1_555
C11_28 C5_28 1_555 1_555
H6_28 C11_28 1_555 1_555
H7_28 C11_28 1_555 1_555
H8_28 C11_28 1_555 1_555
C12_28 C2_28 1_555 1_555
H9_28 C12_28 1_555 1_555
O16_44 C13_28 1_555 1_555
O18_15 C13_28 1_555 1_555
C13_28 C14_28 1_555 1_555
C14_28 C15_28 1_555 1_555
C15_28 H10_28 1_555 1_555
C16_28 C15_28 1_555 1_555
C17_28 C16_28 1_555 1_555
C18_28 C17_28 1_555 1_555
C19_28 C6_28 1_555 1_555
C20_28 C16_28 1_555 1_555
C21_28 C20_28 1_555 1_555
H11_28 C21_28 1_555 1_555
C22_28 C17_28 1_555 1_555
H12_28 C22_28 1_555 1_555
H13_28 C22_28 1_555 1_555
H14_28 C22_28 1_555 1_555
C23_28 C17_28 1_555 1_555
H15_28 C23_28 1_555 1_555
H16_28 C23_28 1_555 1_555
H17_28 C23_28 1_555 1_555
C24_28 C14_28 1_555 1_555
H18_28 C24_28 1_555 1_555
O14_14 C25_28 1_555 1_555
O18_11 C25_28 1_555 1_555
C25_28 C26_28 1_555 1_555
C26_28 C27_28 1_555 1_555
C27_28 H19_28 1_555 1_555
C28_28 C27_28 1_555 1_555
C29_28 C28_28 1_555 1_555
C30_28 C7_28 1_555 1_555
C31_28 C18_28 1_555 1_555
C32_28 C28_28 1_555 1_555
C33_28 C32_28 1_555 1_555
H20_28 C33_28 1_555 1_555
C34_28 C29_28 1_555 1_555
H21_28 C34_28 1_555 1_555
H22_28 C34_28 1_555 1_555
H23_28 C34_28 1_555 1_555
C35_28 C29_28 1_555 1_555
H24_28 C35_28 1_555 1_555
H25_28 C35_28 1_555 1_555
H26_28 C35_28 1_555 1_555
C36_28 C26_28 1_555 1_555
H27_28 C36_28 1_555 1_555
O17_11 C37_28 1_555 1_555
C37_28 O15_11 1_555 1_555
C38_28 C37_28 1_555 1_555
C39_28 C38_28 1_555 1_555
H28_28 C39_28 1_555 1_555
C40_28 C39_28 1_555 1_555
C41_28 C40_28 1_555 1_555
C42_28 C41_28 1_555 1_555
C43_28 C42_28 1_555 1_555
C44_28 C40_28 1_555 1_555
C45_28 C44_28 1_555 1_555
H29_28 C45_28 1_555 1_555
C46_28 C41_28 1_555 1_555
H30_28 C46_28 1_555 1_555
H31_28 C46_28 1_555 1_555
H32_28 C46_28 1_555 1_555
C47_28 C41_28 1_555 1_555
H33_28 C47_28 1_555 1_555
H34_28 C47_28 1_555 1_555
H35_28 C47_28 1_555 1_555
C48_28 C38_28 1_555 1_555
H36_28 C48_28 1_555 1_555
O16_36 C49_28 1_555 1_555
O19_21 C49_28 1_555 1_555
C49_28 C50_28 1_555 1_555
C50_28 C51_28 1_555 1_555
C51_28 H37_28 1_555 1_555
C52_28 C51_28 1_555 1_555
C53_28 C52_28 1_555 1_555
C54_28 C53_28 1_555 1_555
C55_28 C42_28 1_555 1_555
C56_28 C52_28 1_555 1_555
C57_28 C56_28 1_555 1_555
H38_28 C57_28 1_555 1_555
C58_28 C53_28 1_555 1_555
H39_28 C58_28 1_555 1_555
H40_28 C58_28 1_555 1_555
H41_28 C58_28 1_555 1_555
C59_28 C53_28 1_555 1_555
H42_28 C59_28 1_555 1_555
H43_28 C59_28 1_555 1_555
H44_28 C59_28 1_555 1_555
C60_28 C50_28 1_555 1_555
H45_28 C60_28 1_555 1_555
O16_40 C61_28 1_555 1_555
C61_28 O19_10 1_555 1_555
C62_28 C61_28 1_555 1_555
C63_28 C62_28 1_555 1_555
H46_28 C63_28 1_555 1_555
C64_28 C63_28 1_555 1_555
C65_28 C64_28 1_555 1_555
C66_28 C43_28 1_555 1_555
C67_28 C54_28 1_555 1_555
C68_28 C64_28 1_555 1_555
C69_28 C68_28 1_555 1_555
H47_28 C69_28 1_555 1_555
C70_28 C65_28 1_555 1_555
H48_28 C70_28 1_555 1_555
H49_28 C70_28 1_555 1_555
H50_28 C70_28 1_555 1_555
C71_28 C65_28 1_555 1_555
H51_28 C71_28 1_555 1_555
H52_28 C71_28 1_555 1_555
H53_28 C71_28 1_555 1_555
C72_28 C62_28 1_555 1_555
H54_28 C72_28 1_555 1_555
C7_28 C8_28 1_555 1_555
C9_28 C12_28 1_555 1_555
C18_28 C19_28 1_555 1_555
C19_28 C20_28 1_555 1_555
C21_28 C24_28 1_555 1_555
C29_28 C30_28 1_555 1_555
C30_28 C31_28 1_555 1_555
C31_28 C32_28 1_555 1_555
C33_28 C36_28 1_555 1_555
C43_28 C44_28 1_555 1_555
C45_28 C48_28 1_555 1_555
C54_28 C55_28 1_555 1_555
C55_28 C56_28 1_555 1_555
C57_28 C60_28 1_555 1_555
C65_28 C66_28 1_555 1_555
C66_28 C67_28 1_555 1_555
C67_28 C68_28 1_555 1_555
C69_28 C72_28 1_555 1_555
O16_2 C1_29 1_555 1_555
O17_36 C1_29 1_555 1_555
C1_29 C2_29 1_555 1_555
C2_29 C3_29 1_555 1_555
C3_29 H1_29 1_555 1_555
C4_29 C3_29 1_555 1_555
C5_29 C4_29 1_555 1_555
C6_29 C5_29 1_555 1_555
C7_29 C6_29 1_555 1_555
C8_29 C4_29 1_555 1_555
C9_29 C8_29 1_555 1_555
H2_29 C9_29 1_555 1_555
C10_29 C5_29 1_555 1_555
H3_29 C10_29 1_555 1_555
H4_29 C10_29 1_555 1_555
H5_29 C10_29 1_555 1_555
C11_29 C5_29 1_555 1_555
H6_29 C11_29 1_555 1_555
H7_29 C11_29 1_555 1_555
H8_29 C11_29 1_555 1_555
C12_29 C2_29 1_555 1_555
H9_29 C12_29 1_555 1_555
O16_11 C13_29 1_555 1_555
O18_24 C13_29 1_555 1_555
C13_29 C14_29 1_555 1_555
C14_29 C15_29 1_555 1_555
C15_29 H10_29 1_555 1_555
C16_29 C15_29 1_555 1_555
C17_29 C16_29 1_555 1_555
C18_29 C17_29 1_555 1_555
C19_29 C6_29 1_555 1_555
C20_29 C16_29 1_555 1_555
C21_29 C20_29 1_555 1_555
H11_29 C21_29 1_555 1_555
C22_29 C17_29 1_555 1_555
H12_29 C22_29 1_555 1_555
H13_29 C22_29 1_555 1_555
H14_29 C22_29 1_555 1_555
C23_29 C17_29 1_555 1_555
H15_29 C23_29 1_555 1_555
H16_29 C23_29 1_555 1_555
H17_29 C23_29 1_555 1_555
C24_29 C14_29 1_555 1_555
H18_29 C24_29 1_555 1_555
O16_5 C25_29 1_555 1_555
O18_18 C25_29 1_555 1_555
C25_29 C26_29 1_555 1_555
C26_29 C27_29 1_555 1_555
C27_29 H19_29 1_555 1_555
C28_29 C27_29 1_555 1_555
C29_29 C28_29 1_555 1_555
C30_29 C7_29 1_555 1_555
C31_29 C18_29 1_555 1_555
C32_29 C28_29 1_555 1_555
C33_29 C32_29 1_555 1_555
H20_29 C33_29 1_555 1_555
C34_29 C29_29 1_555 1_555
H21_29 C34_29 1_555 1_555
H22_29 C34_29 1_555 1_555
H23_29 C34_29 1_555 1_555
C35_29 C29_29 1_555 1_555
H24_29 C35_29 1_555 1_555
H25_29 C35_29 1_555 1_555
H26_29 C35_29 1_555 1_555
C36_29 C26_29 1_555 1_555
H27_29 C36_29 1_555 1_555
C7_29 C8_29 1_555 1_555
C9_29 C12_29 1_555 1_555
C18_29 C19_29 1_555 1_555
C19_29 C20_29 1_555 1_555
C21_29 C24_29 1_555 1_555
C29_29 C30_29 1_555 1_555
C30_29 C31_29 1_555 1_555
C31_29 C32_29 1_555 1_555
C33_29 C36_29 1_555 1_555
O16_3 C1_30 1_555 1_555
O17_34 C1_30 1_555 1_555
C1_30 C2_30 1_555 1_555
C2_30 C3_30 1_555 1_555
C3_30 H1_30 1_555 1_555
C4_30 C3_30 1_555 1_555
C5_30 C4_30 1_555 1_555
C6_30 C5_30 1_555 1_555
C7_30 C6_30 1_555 1_555
C8_30 C4_30 1_555 1_555
C9_30 C8_30 1_555 1_555
H2_30 C9_30 1_555 1_555
C10_30 C5_30 1_555 1_555
H3_30 C10_30 1_555 1_555
H4_30 C10_30 1_555 1_555
H5_30 C10_30 1_555 1_555
C11_30 C5_30 1_555 1_555
H6_30 C11_30 1_555 1_555
H7_30 C11_30 1_555 1_555
H8_30 C11_30 1_555 1_555
C12_30 C2_30 1_555 1_555
H9_30 C12_30 1_555 1_555
O16_9 C13_30 1_555 1_555
O18_22 C13_30 1_555 1_555
C13_30 C14_30 1_555 1_555
C14_30 C15_30 1_555 1_555
C15_30 H10_30 1_555 1_555
C16_30 C15_30 1_555 1_555
C17_30 C16_30 1_555 1_555
C18_30 C17_30 1_555 1_555
C19_30 C6_30 1_555 1_555
C20_30 C16_30 1_555 1_555
C21_30 C20_30 1_555 1_555
H11_30 C21_30 1_555 1_555
C22_30 C17_30 1_555 1_555
H12_30 C22_30 1_555 1_555
H13_30 C22_30 1_555 1_555
H14_30 C22_30 1_555 1_555
C23_30 C17_30 1_555 1_555
H15_30 C23_30 1_555 1_555
H16_30 C23_30 1_555 1_555
H17_30 C23_30 1_555 1_555
C24_30 C14_30 1_555 1_555
H18_30 C24_30 1_555 1_555
O16_6 C25_30 1_555 1_555
O18_17 C25_30 1_555 1_555
C25_30 C26_30 1_555 1_555
C26_30 C27_30 1_555 1_555
C27_30 H19_30 1_555 1_555
C28_30 C27_30 1_555 1_555
C29_30 C28_30 1_555 1_555
C30_30 C7_30 1_555 1_555
C31_30 C18_30 1_555 1_555
C32_30 C28_30 1_555 1_555
C33_30 C32_30 1_555 1_555
H20_30 C33_30 1_555 1_555
C34_30 C29_30 1_555 1_555
H21_30 C34_30 1_555 1_555
H22_30 C34_30 1_555 1_555
H23_30 C34_30 1_555 1_555
C35_30 C29_30 1_555 1_555
H24_30 C35_30 1_555 1_555
H25_30 C35_30 1_555 1_555
H26_30 C35_30 1_555 1_555
C36_30 C26_30 1_555 1_555
H27_30 C36_30 1_555 1_555
C7_30 C8_30 1_555 1_555
C9_30 C12_30 1_555 1_555
C18_30 C19_30 1_555 1_555
C19_30 C20_30 1_555 1_555
C21_30 C24_30 1_555 1_555
C29_30 C30_30 1_555 1_555
C30_30 C31_30 1_555 1_555
C31_30 C32_30 1_555 1_555
C33_30 C36_30 1_555 1_555
O16 C1_31 1_555 1_555
O17_35 C1_31 1_555 1_555
C1_31 C2_31 1_555 1_555
C2_31 C3_31 1_555 1_555
C3_31 H1_31 1_555 1_555
C4_31 C3_31 1_555 1_555
C5_31 C4_31 1_555 1_555
C6_31 C5_31 1_555 1_555
C7_31 C6_31 1_555 1_555
C8_31 C4_31 1_555 1_555
C9_31 C8_31 1_555 1_555
H2_31 C9_31 1_555 1_555
C10_31 C5_31 1_555 1_555
H3_31 C10_31 1_555 1_555
H4_31 C10_31 1_555 1_555
H5_31 C10_31 1_555 1_555
C11_31 C5_31 1_555 1_555
H6_31 C11_31 1_555 1_555
H7_31 C11_31 1_555 1_555
H8_31 C11_31 1_555 1_555
C12_31 C2_31 1_555 1_555
H9_31 C12_31 1_555 1_555
O16_10 C13_31 1_555 1_555
O18_21 C13_31 1_555 1_555
C13_31 C14_31 1_555 1_555
C14_31 C15_31 1_555 1_555
C15_31 H10_31 1_555 1_555
C16_31 C15_31 1_555 1_555
C17_31 C16_31 1_555 1_555
C18_31 C17_31 1_555 1_555
C19_31 C6_31 1_555 1_555
C20_31 C16_31 1_555 1_555
C21_31 C20_31 1_555 1_555
H11_31 C21_31 1_555 1_555
C22_31 C17_31 1_555 1_555
H12_31 C22_31 1_555 1_555
H13_31 C22_31 1_555 1_555
H14_31 C22_31 1_555 1_555
C23_31 C17_31 1_555 1_555
H15_31 C23_31 1_555 1_555
H16_31 C23_31 1_555 1_555
H17_31 C23_31 1_555 1_555
C24_31 C14_31 1_555 1_555
H18_31 C24_31 1_555 1_555
O16_7 C25_31 1_555 1_555
O18_20 C25_31 1_555 1_555
C25_31 C26_31 1_555 1_555
C26_31 C27_31 1_555 1_555
C27_31 H19_31 1_555 1_555
C28_31 C27_31 1_555 1_555
C29_31 C28_31 1_555 1_555
C30_31 C7_31 1_555 1_555
C31_31 C18_31 1_555 1_555
C32_31 C28_31 1_555 1_555
C33_31 C32_31 1_555 1_555
H20_31 C33_31 1_555 1_555
C34_31 C29_31 1_555 1_555
H21_31 C34_31 1_555 1_555
H22_31 C34_31 1_555 1_555
H23_31 C34_31 1_555 1_555
C35_31 C29_31 1_555 1_555
H24_31 C35_31 1_555 1_555
H25_31 C35_31 1_555 1_555
H26_31 C35_31 1_555 1_555
C36_31 C26_31 1_555 1_555
H27_31 C36_31 1_555 1_555
C7_31 C8_31 1_555 1_555
C9_31 C12_31 1_555 1_555
C18_31 C19_31 1_555 1_555
C19_31 C20_31 1_555 1_555
C21_31 C24_31 1_555 1_555
C29_31 C30_31 1_555 1_555
C30_31 C31_31 1_555 1_555
C31_31 C32_31 1_555 1_555
C33_31 C36_31 1_555 1_555
O16_4 C1_32 1_555 1_555
O17_33 C1_32 1_555 1_555
C1_32 C2_32 1_555 1_555
C2_32 C3_32 1_555 1_555
C3_32 H1_32 1_555 1_555
C4_32 C3_32 1_555 1_555
C5_32 C4_32 1_555 1_555
C6_32 C5_32 1_555 1_555
C7_32 C6_32 1_555 1_555
C8_32 C4_32 1_555 1_555
C9_32 C8_32 1_555 1_555
H2_32 C9_32 1_555 1_555
C10_32 C5_32 1_555 1_555
H3_32 C10_32 1_555 1_555
H4_32 C10_32 1_555 1_555
H5_32 C10_32 1_555 1_555
C11_32 C5_32 1_555 1_555
H6_32 C11_32 1_555 1_555
H7_32 C11_32 1_555 1_555
H8_32 C11_32 1_555 1_555
C12_32 C2_32 1_555 1_555
H9_32 C12_32 1_555 1_555
O16_12 C13_32 1_555 1_555
O18_23 C13_32 1_555 1_555
C13_32 C14_32 1_555 1_555
C14_32 C15_32 1_555 1_555
C15_32 H10_32 1_555 1_555
C16_32 C15_32 1_555 1_555
C17_32 C16_32 1_555 1_555
C18_32 C17_32 1_555 1_555
C19_32 C6_32 1_555 1_555
C20_32 C16_32 1_555 1_555
C21_32 C20_32 1_555 1_555
H11_32 C21_32 1_555 1_555
C22_32 C17_32 1_555 1_555
H12_32 C22_32 1_555 1_555
H13_32 C22_32 1_555 1_555
H14_32 C22_32 1_555 1_555
C23_32 C17_32 1_555 1_555
H15_32 C23_32 1_555 1_555
H16_32 C23_32 1_555 1_555
H17_32 C23_32 1_555 1_555
C24_32 C14_32 1_555 1_555
H18_32 C24_32 1_555 1_555
O16_8 C25_32 1_555 1_555
O18_19 C25_32 1_555 1_555
C25_32 C26_32 1_555 1_555
C26_32 C27_32 1_555 1_555
C27_32 H19_32 1_555 1_555
C28_32 C27_32 1_555 1_555
C29_32 C28_32 1_555 1_555
C30_32 C7_32 1_555 1_555
C31_32 C18_32 1_555 1_555
C32_32 C28_32 1_555 1_555
C33_32 C32_32 1_555 1_555
H20_32 C33_32 1_555 1_555
C34_32 C29_32 1_555 1_555
H21_32 C34_32 1_555 1_555
H22_32 C34_32 1_555 1_555
H23_32 C34_32 1_555 1_555
C35_32 C29_32 1_555 1_555
H24_32 C35_32 1_555 1_555
H25_32 C35_32 1_555 1_555
H26_32 C35_32 1_555 1_555
C36_32 C26_32 1_555 1_555
H27_32 C36_32 1_555 1_555
C7_32 C8_32 1_555 1_555
C9_32 C12_32 1_555 1_555
C18_32 C19_32 1_555 1_555
C19_32 C20_32 1_555 1_555
C21_32 C24_32 1_555 1_555
C29_32 C30_32 1_555 1_555
C30_32 C31_32 1_555 1_555
C31_32 C32_32 1_555 1_555
C33_32 C36_32 1_555 1_555
O17_30 C37_29 1_555 1_555
C37_29 O16_18 1_555 1_555
C38_29 C37_29 1_555 1_555
C39_29 C38_29 1_555 1_555
H28_29 C39_29 1_555 1_555
C40_29 C39_29 1_555 1_555
C41_29 C40_29 1_555 1_555
C42_29 C41_29 1_555 1_555
C43_29 C42_29 1_555 1_555
C44_29 C40_29 1_555 1_555
C45_29 C44_29 1_555 1_555
H29_29 C45_29 1_555 1_555
C46_29 C41_29 1_555 1_555
H30_29 C46_29 1_555 1_555
H31_29 C46_29 1_555 1_555
H32_29 C46_29 1_555 1_555
C47_29 C41_29 1_555 1_555
H33_29 C47_29 1_555 1_555
H34_29 C47_29 1_555 1_555
H35_29 C47_29 1_555 1_555
C48_29 C38_29 1_555 1_555
H36_29 C48_29 1_555 1_555
O16_15 C49_29 1_555 1_555
O17_42 C49_29 1_555 1_555
C49_29 C50_29 1_555 1_555
C50_29 C51_29 1_555 1_555
C51_29 H37_29 1_555 1_555
C52_29 C51_29 1_555 1_555
C53_29 C52_29 1_555 1_555
C54_29 C53_29 1_555 1_555
C55_29 C42_29 1_555 1_555
C56_29 C52_29 1_555 1_555
C57_29 C56_29 1_555 1_555
H38_29 C57_29 1_555 1_555
C58_29 C53_29 1_555 1_555
H39_29 C58_29 1_555 1_555
H40_29 C58_29 1_555 1_555
H41_29 C58_29 1_555 1_555
C59_29 C53_29 1_555 1_555
H42_29 C59_29 1_555 1_555
H43_29 C59_29 1_555 1_555
H44_29 C59_29 1_555 1_555
C60_29 C50_29 1_555 1_555
H45_29 C60_29 1_555 1_555
O16_21 C61_29 1_555 1_555
C61_29 O19_19 1_555 1_555
C62_29 C61_29 1_555 1_555
C63_29 C62_29 1_555 1_555
H46_29 C63_29 1_555 1_555
C64_29 C63_29 1_555 1_555
C65_29 C64_29 1_555 1_555
C66_29 C43_29 1_555 1_555
C67_29 C54_29 1_555 1_555
C68_29 C64_29 1_555 1_555
C69_29 C68_29 1_555 1_555
H47_29 C69_29 1_555 1_555
C70_29 C65_29 1_555 1_555
H48_29 C70_29 1_555 1_555
H49_29 C70_29 1_555 1_555
H50_29 C70_29 1_555 1_555
C71_29 C65_29 1_555 1_555
H51_29 C71_29 1_555 1_555
H52_29 C71_29 1_555 1_555
H53_29 C71_29 1_555 1_555
C72_29 C62_29 1_555 1_555
H54_29 C72_29 1_555 1_555
C43_29 C44_29 1_555 1_555
C45_29 C48_29 1_555 1_555
C54_29 C55_29 1_555 1_555
C55_29 C56_29 1_555 1_555
C57_29 C60_29 1_555 1_555
C65_29 C66_29 1_555 1_555
C66_29 C67_29 1_555 1_555
C67_29 C68_29 1_555 1_555
C69_29 C72_29 1_555 1_555
O17_29 C37_30 1_555 1_555
C37_30 O16_17 1_555 1_555
C38_30 C37_30 1_555 1_555
C39_30 C38_30 1_555 1_555
H28_30 C39_30 1_555 1_555
C40_30 C39_30 1_555 1_555
C41_30 C40_30 1_555 1_555
C42_30 C41_30 1_555 1_555
C43_30 C42_30 1_555 1_555
C44_30 C40_30 1_555 1_555
C45_30 C44_30 1_555 1_555
H29_30 C45_30 1_555 1_555
C46_30 C41_30 1_555 1_555
H30_30 C46_30 1_555 1_555
H31_30 C46_30 1_555 1_555
H32_30 C46_30 1_555 1_555
C47_30 C41_30 1_555 1_555
H33_30 C47_30 1_555 1_555
H34_30 C47_30 1_555 1_555
H35_30 C47_30 1_555 1_555
C48_30 C38_30 1_555 1_555
H36_30 C48_30 1_555 1_555
O16_14 C49_30 1_555 1_555
O17_44 C49_30 1_555 1_555
C49_30 C50_30 1_555 1_555
C50_30 C51_30 1_555 1_555
C51_30 H37_30 1_555 1_555
C52_30 C51_30 1_555 1_555
C53_30 C52_30 1_555 1_555
C54_30 C53_30 1_555 1_555
C55_30 C42_30 1_555 1_555
C56_30 C52_30 1_555 1_555
C57_30 C56_30 1_555 1_555
H38_30 C57_30 1_555 1_555
C58_30 C53_30 1_555 1_555
H39_30 C58_30 1_555 1_555
H40_30 C58_30 1_555 1_555
H41_30 C58_30 1_555 1_555
C59_30 C53_30 1_555 1_555
H42_30 C59_30 1_555 1_555
H43_30 C59_30 1_555 1_555
H44_30 C59_30 1_555 1_555
C60_30 C50_30 1_555 1_555
H45_30 C60_30 1_555 1_555
O16_23 C61_30 1_555 1_555
C61_30 O19_20 1_555 1_555
C62_30 C61_30 1_555 1_555
C63_30 C62_30 1_555 1_555
H46_30 C63_30 1_555 1_555
C64_30 C63_30 1_555 1_555
C65_30 C64_30 1_555 1_555
C66_30 C43_30 1_555 1_555
C67_30 C54_30 1_555 1_555
C68_30 C64_30 1_555 1_555
C69_30 C68_30 1_555 1_555
H47_30 C69_30 1_555 1_555
C70_30 C65_30 1_555 1_555
H48_30 C70_30 1_555 1_555
H49_30 C70_30 1_555 1_555
H50_30 C70_30 1_555 1_555
C71_30 C65_30 1_555 1_555
H51_30 C71_30 1_555 1_555
H52_30 C71_30 1_555 1_555
H53_30 C71_30 1_555 1_555
C72_30 C62_30 1_555 1_555
H54_30 C72_30 1_555 1_555
C43_30 C44_30 1_555 1_555
C45_30 C48_30 1_555 1_555
C54_30 C55_30 1_555 1_555
C55_30 C56_30 1_555 1_555
C57_30 C60_30 1_555 1_555
C65_30 C66_30 1_555 1_555
C66_30 C67_30 1_555 1_555
C67_30 C68_30 1_555 1_555
C69_30 C72_30 1_555 1_555
O17_32 C37_31 1_555 1_555
C37_31 O16_19 1_555 1_555
C38_31 C37_31 1_555 1_555
C39_31 C38_31 1_555 1_555
H28_31 C39_31 1_555 1_555
C40_31 C39_31 1_555 1_555
C41_31 C40_31 1_555 1_555
C42_31 C41_31 1_555 1_555
C43_31 C42_31 1_555 1_555
C44_31 C40_31 1_555 1_555
C45_31 C44_31 1_555 1_555
H29_31 C45_31 1_555 1_555
C46_31 C41_31 1_555 1_555
H30_31 C46_31 1_555 1_555
H31_31 C46_31 1_555 1_555
H32_31 C46_31 1_555 1_555
C47_31 C41_31 1_555 1_555
H33_31 C47_31 1_555 1_555
H34_31 C47_31 1_555 1_555
H35_31 C47_31 1_555 1_555
C48_31 C38_31 1_555 1_555
H36_31 C48_31 1_555 1_555
O16_13 C49_31 1_555 1_555
O17_43 C49_31 1_555 1_555
C49_31 C50_31 1_555 1_555
C50_31 C51_31 1_555 1_555
C51_31 H37_31 1_555 1_555
C52_31 C51_31 1_555 1_555
C53_31 C52_31 1_555 1_555
C54_31 C53_31 1_555 1_555
C55_31 C42_31 1_555 1_555
C56_31 C52_31 1_555 1_555
C57_31 C56_31 1_555 1_555
H38_31 C57_31 1_555 1_555
C58_31 C53_31 1_555 1_555
H39_31 C58_31 1_555 1_555
H40_31 C58_31 1_555 1_555
H41_31 C58_31 1_555 1_555
C59_31 C53_31 1_555 1_555
H42_31 C59_31 1_555 1_555
H43_31 C59_31 1_555 1_555
H44_31 C59_31 1_555 1_555
C60_31 C50_31 1_555 1_555
H45_31 C60_31 1_555 1_555
O16_22 C61_31 1_555 1_555
C61_31 O19_17 1_555 1_555
C62_31 C61_31 1_555 1_555
C63_31 C62_31 1_555 1_555
H46_31 C63_31 1_555 1_555
C64_31 C63_31 1_555 1_555
C65_31 C64_31 1_555 1_555
C66_31 C43_31 1_555 1_555
C67_31 C54_31 1_555 1_555
C68_31 C64_31 1_555 1_555
C69_31 C68_31 1_555 1_555
H47_31 C69_31 1_555 1_555
C70_31 C65_31 1_555 1_555
H48_31 C70_31 1_555 1_555
H49_31 C70_31 1_555 1_555
H50_31 C70_31 1_555 1_555
C71_31 C65_31 1_555 1_555
H51_31 C71_31 1_555 1_555
H52_31 C71_31 1_555 1_555
H53_31 C71_31 1_555 1_555
C72_31 C62_31 1_555 1_555
H54_31 C72_31 1_555 1_555
C43_31 C44_31 1_555 1_555
C45_31 C48_31 1_555 1_555
C54_31 C55_31 1_555 1_555
C55_31 C56_31 1_555 1_555
C57_31 C60_31 1_555 1_555
C65_31 C66_31 1_555 1_555
C66_31 C67_31 1_555 1_555
C67_31 C68_31 1_555 1_555
C69_31 C72_31 1_555 1_555
O17_31 C37_32 1_555 1_555
C37_32 O16_20 1_555 1_555
C38_32 C37_32 1_555 1_555
C39_32 C38_32 1_555 1_555
H28_32 C39_32 1_555 1_555
C40_32 C39_32 1_555 1_555
C41_32 C40_32 1_555 1_555
C42_32 C41_32 1_555 1_555
C43_32 C42_32 1_555 1_555
C44_32 C40_32 1_555 1_555
C45_32 C44_32 1_555 1_555
H29_32 C45_32 1_555 1_555
C46_32 C41_32 1_555 1_555
H30_32 C46_32 1_555 1_555
H31_32 C46_32 1_555 1_555
H32_32 C46_32 1_555 1_555
C47_32 C41_32 1_555 1_555
H33_32 C47_32 1_555 1_555
H34_32 C47_32 1_555 1_555
H35_32 C47_32 1_555 1_555
C48_32 C38_32 1_555 1_555
H36_32 C48_32 1_555 1_555
O16_16 C49_32 1_555 1_555
O17_41 C49_32 1_555 1_555
C49_32 C50_32 1_555 1_555
C50_32 C51_32 1_555 1_555
C51_32 H37_32 1_555 1_555
C52_32 C51_32 1_555 1_555
C53_32 C52_32 1_555 1_555
C54_32 C53_32 1_555 1_555
C55_32 C42_32 1_555 1_555
C56_32 C52_32 1_555 1_555
C57_32 C56_32 1_555 1_555
H38_32 C57_32 1_555 1_555
C58_32 C53_32 1_555 1_555
H39_32 C58_32 1_555 1_555
H40_32 C58_32 1_555 1_555
H41_32 C58_32 1_555 1_555
C59_32 C53_32 1_555 1_555
H42_32 C59_32 1_555 1_555
H43_32 C59_32 1_555 1_555
H44_32 C59_32 1_555 1_555
C60_32 C50_32 1_555 1_555
H45_32 C60_32 1_555 1_555
O16_24 C61_32 1_555 1_555
C61_32 O19_18 1_555 1_555
C62_32 C61_32 1_555 1_555
C63_32 C62_32 1_555 1_555
H46_32 C63_32 1_555 1_555
C64_32 C63_32 1_555 1_555
C65_32 C64_32 1_555 1_555
C66_32 C43_32 1_555 1_555
C67_32 C54_32 1_555 1_555
C68_32 C64_32 1_555 1_555
C69_32 C68_32 1_555 1_555
H47_32 C69_32 1_555 1_555
C70_32 C65_32 1_555 1_555
H48_32 C70_32 1_555 1_555
H49_32 C70_32 1_555 1_555
H50_32 C70_32 1_555 1_555
C71_32 C65_32 1_555 1_555
H51_32 C71_32 1_555 1_555
H52_32 C71_32 1_555 1_555
H53_32 C71_32 1_555 1_555
C72_32 C62_32 1_555 1_555
H54_32 C72_32 1_555 1_555
C43_32 C44_32 1_555 1_555
C45_32 C48_32 1_555 1_555
C54_32 C55_32 1_555 1_555
C55_32 C56_32 1_555 1_555
C57_32 C60_32 1_555 1_555
C65_32 C66_32 1_555 1_555
C66_32 C67_32 1_555 1_555
C67_32 C68_32 1_555 1_555
C69_32 C72_32 1_555 1_555

#END
