
###############################################################################
#
# This file contains modified crystal structure data generated from the
# MOF subset of the Cambridge Structural Database (CSD) v543 
# hosted by the Cambridge Crystallographic Data Centre (CCDC).
#
# This work is licensed under the Creative Commons
# Attribution-NonCommercial-ShareAlike 4.0 International License.
# To view a copy of this license, visit
# http://creativecommons.org/licenses/by-nc-sa/4.0/
# or send a letter to
# Creative Commons, PO Box 1866, Mountain View, CA 94042, USA.
#
# CIF created using the CSD Python API on 29 September 2022
# The structure has been converted into the P1 space group
# The structure has a 3D framework
# The original CSD entry ZUCXON is in the monoclinic crystal system
# The framework has been calculated to contain at least 10.0% void space
# The void calculation uses a probe of radius 1.32A, grid spacing 0.4
#
###############################################################################

data_ZUCXON
_chemical_formula_moiety         '(C576 H384 I96 N192 Zn48)n'
_symmetry_cell_setting           triclinic
_symmetry_space_group_name_H-M   'P 1'
_symmetry_Int_Tables_number      1
_space_group_name_Hall           'P 1'
loop_
_symmetry_equiv_pos_site_id
_symmetry_equiv_pos_as_xyz
1 x,y,z
_cell_length_a                   35.2435(14)
_cell_length_b                   30.2238(8)
_cell_length_c                   30.9353(14)
_cell_angle_alpha                90
_cell_angle_beta                 102.074(4)
_cell_angle_gamma                90
_cell_volume                     32223.1
loop_
_atom_site_label
_atom_site_type_symbol
_atom_site_fract_x
_atom_site_fract_y
_atom_site_fract_z
I21 I 0.14893(4) 0.21286(5) 0.48929(5)
I22 I 0.10622(5) 0.13584(4) 0.59247(6)
I23 I 0.37359(4) 0.58697(4) 0.79928(5)
I24 I 0.26584(4) 0.61591(4) 0.70038(6)
Zn11 Zn 0.12693(6) 0.20785(6) 0.56238(8)
Zn12 Zn 0.32800(6) 0.57143(6) 0.72547(8)
N40 N 0.0825(3) 0.2515(4) 0.5597(3)
C112 C 0.0201(3) 0.3084(4) 0.5588(3)
C113 C 0.0376(4) 0.2870(4) 0.5975(5)
H73 H 0.0283 0.2908 0.6240
C114 C 0.0688(3) 0.2600(4) 0.5962(4)
H74 H 0.0815 0.2464 0.6231
C115 C 0.0643(3) 0.2711(4) 0.5222(4)
H75 H 0.0726 0.2644 0.4955
C116 C 0.0341(3) 0.3006(4) 0.5207(4)
H76 H 0.0230 0.3153 0.4939
N43 N 0.3163(3) 0.3419(3) 0.7561(4)
N44 N 0.2625(3) 0.3490(3) 0.6970(4)
N45 N 0.2790(3) 0.2790(3) 0.7310(3)
N46 N 0.3144(3) 0.5052(3) 0.7262(4)
N47 N 0.1685(3) 0.2380(3) 0.6105(4)
N48 N 0.3780(3) 0.2248(3) 0.8625(4)
C127 C 0.2931(3) 0.3657(3) 0.7256(4)
C128 C 0.2569(4) 0.3054(3) 0.7010(4)
C129 C 0.3082(3) 0.2991(3) 0.7576(4)
C130 C 0.3010(3) 0.4142(3) 0.7245(5)
C131 C 0.3341(4) 0.4316(3) 0.7503(5)
H85 H 0.3526 0.4130 0.7684
C132 C 0.3400(4) 0.4767(3) 0.7494(5)
H86 H 0.3635 0.4882 0.7662
C133 C 0.2821(4) 0.4882(3) 0.7019(5)
H87 H 0.2636 0.5076 0.6849
C134 C 0.2745(4) 0.4434(3) 0.7004(5)
H88 H 0.2510 0.4325 0.6829
C135 C 0.2275(3) 0.2822(3) 0.6680(4)
C136 C 0.2057(3) 0.3044(4) 0.6317(4)
H89 H 0.2097 0.3349 0.6267
C137 C 0.1779(4) 0.2803(3) 0.6033(5)
H90 H 0.1646 0.2942 0.5769
C138 C 0.1903(3) 0.2176(4) 0.6448(4)
H91 H 0.1862 0.1869 0.6484
C139 C 0.2183(3) 0.2382(3) 0.6753(4)
H92 H 0.2313 0.2229 0.7010
C140 C 0.3317(3) 0.2734(3) 0.7944(3)
C141 C 0.3284(4) 0.2280(3) 0.7984(5)
H93 H 0.3104 0.2123 0.7766
C142 C 0.3508(4) 0.2051(4) 0.8334(4)
H94 H 0.3464 0.1744 0.8364
C143 C 0.3796(4) 0.2689(3) 0.8599(5)
H95 H 0.3973 0.2837 0.8826
C144 C 0.3578(4) 0.2950(4) 0.8270(4)
H96 H 0.3606 0.3263 0.8269
Zn13 Zn 0.41778(6) 0.18665(6) 0.90645(7)
N49 N 0.3613(3) 0.5804(3) 0.6765(3)
I2 I 0.60358(4) 0.61406(4) 0.08966(6)
I5 I 0.36257(4) 0.41471(4) 0.29346(5)
I6 I 0.25827(4) 0.38528(4) 0.18906(6)
I7 I 0.10235(5) 0.86674(4) 0.10265(6)
I17 I 0.97189(4) 0.57480(4) 0.36336(5)
I18 I 0.88000(4) 0.61672(4) 0.43839(5)
I19 I 0.87010(4) 0.33604(4) 0.79673(5)
I20 I 0.76271(4) 0.36425(4) 0.69609(5)
Zn1 Zn 0.62343(6) 0.54179(6) 0.05815(8)
Zn3 Zn 0.31999(6) 0.42995(6) 0.21753(8)
Zn4 Zn 0.12385(6) 0.79937(6) 0.06490(8)
Zn9 Zn 0.91754(6) 0.55982(6) 0.40437(7)
Zn10 Zn 0.82531(6) 0.32059(6) 0.72213(8)
N16 N 0.0817(3) 0.7544(4) 0.0604(3)
C40 C 0.0189(3) 0.6971(3) 0.0594(3)
C41 C 0.0319(3) 0.7054(4) 0.0208(4)
C42 C 0.0618(3) 0.7355(3) 0.0237(4)
C43 C 0.0686(3) 0.7435(4) 0.0970(4)
H27 H 0.0812 0.7571 0.1239
C44 C 0.0392(3) 0.7150(4) 0.0991(4)
H28 H 0.0327 0.7076 0.1266
N19 N 0.3178(3) 0.6589(3) 0.2500(4)
N20 N 0.2798(3) 0.7229(3) 0.2280(4)
N21 N 0.2629(3) 0.6554(3) 0.1919(4)
N22 N 0.3818(3) 0.7741(3) 0.3577(4)
N23 N 0.1665(3) 0.7680(3) 0.1099(4)
N24 N 0.3093(3) 0.4965(3) 0.2169(4)
C55 C 0.3103(3) 0.7017(3) 0.2529(4)
C56 C 0.2576(3) 0.6992(3) 0.1955(4)
C57 C 0.2921(3) 0.6370(3) 0.2194(4)
C58 C 0.3350(3) 0.7263(3) 0.2892(4)
C59 C 0.3662(3) 0.7070(4) 0.3173(4)
H37 H 0.3725 0.6769 0.3132
C60 C 0.3877(4) 0.7308(3) 0.3506(5)
H38 H 0.4082 0.7162 0.3702
C61 C 0.3512(4) 0.7936(4) 0.3309(4)
H39 H 0.3460 0.8238 0.3356
C62 C 0.3273(4) 0.7712(3) 0.2967(5)
H40 H 0.3060 0.7858 0.2785
C63 C 0.2257(3) 0.7218(3) 0.1661(4)
C64 C 0.2197(4) 0.7671(3) 0.1712(5)
H41 H 0.2355 0.7827 0.1950
C65 C 0.1911(4) 0.7895(4) 0.1419(4)
H42 H 0.1888 0.8207 0.1446
C66 C 0.1722(4) 0.7254(3) 0.1049(5)
H43 H 0.1560 0.7109 0.0807
C67 C 0.2000(3) 0.7004(4) 0.1323(4)
H44 H 0.2014 0.6693 0.1283
C68 C 0.2981(3) 0.5884(3) 0.2189(5)
C69 C 0.2703(4) 0.5601(3) 0.1944(5)
H45 H 0.2466 0.5719 0.1782
C70 C 0.2769(4) 0.5155(3) 0.1936(5)
H46 H 0.2579 0.4972 0.1759
C71 C 0.3363(4) 0.5240(3) 0.2414(6)
H47 H 0.3586 0.5115 0.2601
C72 C 0.3323(3) 0.5695(3) 0.2397(5)
H48 H 0.3535 0.5878 0.2532
N25 N 0.4780(3) 0.3796(3) 0.0301(4)
N26 N 0.4611(2) 0.4213(3) 0.0875(3)
N27 N 0.4255(3) 0.3571(3) 0.0611(3)
N28 N 0.5781(3) 0.4980(3) 0.0578(3)
N29 N 0.3544(3) 0.4199(3) 0.1732(3)
C73 C 0.4833(3) 0.4126(3) 0.0588(4)
C74 C 0.4316(3) 0.3933(3) 0.0862(4)
C75 C 0.4504(3) 0.3508(3) 0.0346(4)
C76 C 0.5170(3) 0.4413(4) 0.0583(3)
C77 C 0.5303(3) 0.4481(3) 0.0202(4)
C78 C 0.5600(3) 0.4787(4) 0.0195(4)
C79 C 0.5645(3) 0.4924(4) 0.0941(4)
H51 H 0.5752 0.5094 0.1196
C80 C 0.5358(3) 0.4632(4) 0.0961(4)
H52 H 0.5285 0.4578 0.1235
C81 C 0.4049(3) 0.4006(4) 0.1172(3)
C82 C 0.4146(4) 0.4302(4) 0.1521(4)
H53 H 0.4384 0.4459 0.1564
C83 C 0.3898(3) 0.4368(5) 0.1805(5)
H54 H 0.3985 0.4541 0.2062
C84 C 0.3438(4) 0.3938(4) 0.1382(4)
H55 H 0.3184 0.3817 0.1328
C85 C 0.3671(3) 0.3832(4) 0.1093(4)
H56 H 0.3579 0.3646 0.0845
C86 C 0.4468(3) 0.3090(3) 0.0082(4)
C87 C 0.4192(4) 0.2777(3) 0.0118(5)
H57 H 0.4045 0.2805 0.0342
N31 N 0.8178(3) 0.4088(3) 0.2483(4)
N32 N 0.7625(3) 0.4027(3) 0.1890(4)
N33 N 0.7794(3) 0.4730(3) 0.2256(4)
N34 N 0.8118(3) 0.2460(3) 0.2208(4)
N35 N 0.6655(3) 0.5117(3) 0.1046(4)
N36 N 0.8775(3) 0.5251(3) 0.3579(4)
C91 C 0.7925(3) 0.3859(3) 0.2184(4)
C92 C 0.7590(4) 0.4479(3) 0.1926(4)
C93 C 0.8095(3) 0.4520(3) 0.2511(4)
C94 C 0.7996(3) 0.3379(3) 0.2165(5)
C95 C 0.8318(4) 0.3197(3) 0.2435(5)
H61 H 0.8509 0.3384 0.2606
C96 C 0.8366(4) 0.2748(3) 0.2456(5)
H62 H 0.8585 0.2632 0.2657
C97 C 0.7813(4) 0.2640(3) 0.1956(5)
H63 H 0.7629 0.2446 0.1783
C98 C 0.7736(4) 0.3085(3) 0.1920(5)
H64 H 0.7508 0.3190 0.1728
C99 C 0.7246(3) 0.4694(3) 0.1645(4)
C100 C 0.6999(3) 0.4456(4) 0.1313(4)
H65 H 0.7024 0.4145 0.1292
C101 C 0.6719(4) 0.4681(3) 0.1019(5)
H66 H 0.6562 0.4519 0.0785
C102 C 0.6898(4) 0.5327(4) 0.1369(5)
H67 H 0.6856 0.5635 0.1400
C103 C 0.7202(4) 0.5141(3) 0.1659(5)
H68 H 0.7377 0.5318 0.1864
C104 C 0.8327(3) 0.4764(3) 0.2898(4)
C105 C 0.8245(4) 0.5202(3) 0.2962(4)
H69 H 0.8036 0.5344 0.2767
C106 C 0.8468(3) 0.5434(4) 0.3311(4)
H70 H 0.8402 0.5732 0.3360
C107 C 0.8867(5) 0.4832(4) 0.3486(5)
H71 H 0.9098 0.4710 0.3658
C108 C 0.8651(4) 0.4571(4) 0.3162(4)
H72 H 0.8720 0.4273 0.3121
N37 N 0.9645(3) 0.3284(3) 0.5896(3)
N38 N 0.9791(3) 0.3696(3) 0.5296(4)
N39 N 0.9273(3) 0.3926(3) 0.5643(3)
N41 N 0.9328(3) 0.5094(3) 0.4499(4)
N42 N 0.8583(3) 0.3314(4) 0.6764(4)
C109 C 0.9864(3) 0.3372(3) 0.5605(4)
C110 C 0.9498(3) 0.3974(3) 0.5347(4)
C111 C 0.9346(3) 0.3552(3) 0.5885(4)
C117 C 0.9434(3) 0.4360(3) 0.5043(4)
C118 C 0.9696(3) 0.4454(3) 0.4774(4)
H77 H 0.9913 0.4269 0.4771
C119 C 0.9627(4) 0.4832(3) 0.4510(5)
H78 H 0.9805 0.4903 0.4328
C120 C 0.9100(4) 0.5018(4) 0.4791(4)
H79 H 0.8900 0.5225 0.4806
C121 C 0.9143(4) 0.4658(4) 0.5070(5)
H80 H 0.8978 0.4616 0.5273
C122 C 0.9084(3) 0.3482(3) 0.6193(3)
C123 C 0.8716(3) 0.3667(4) 0.6121(4)
H81 H 0.8628 0.3857 0.5876
C124 C 0.8481(3) 0.3567(4) 0.6415(4)
H82 H 0.8227 0.3691 0.6360
C125 C 0.8926(3) 0.3124(4) 0.6826(4)
H83 H 0.9000 0.2928 0.7069
C126 C 0.9185(3) 0.3199(4) 0.6551(4)
H84 H 0.9431 0.3057 0.6609
Zn15 Zn 0.42172(6) 0.80824(6) 0.40441(7)
Zn16 Zn 0.82531(6) 0.17941(6) 0.22213(8)
N52 N 0.8118(3) 0.2540(3) 0.7208(4)
I1 I 0.64443(4) 0.53647(4) 0.98459(5)
I3 I 0.38023(4) 0.12798(4) 0.93827(5)
I4 I 0.46870(4) 0.16933(4) 0.86196(5)
I8 I 0.14385(5) 0.80318(6) 0.99165(6)
H25 H 0.0208 0.6912 0.9937
H26 H 0.0690 0.7436 0.9968
N30 N 0.4359(3) 0.2344(3) 0.9545(4)
H49 H 0.5193 0.4320 0.9942
H50 H 0.5674 0.4858 0.9924
C88 C 0.4127(4) 0.2421(4) 0.9829(4)
H58 H 0.3915 0.2228 0.9833
C89 C 0.4651(3) 0.2625(3) 0.9555(5)
H59 H 0.4841 0.2547 0.9391
C90 C 0.4701(4) 0.3018(3) 0.9780(4)
H60 H 0.4887 0.3231 0.9732
I15 I 0.47602(4) 0.67850(4) 0.86254(5)
I16 I 0.38717(4) 0.63315(4) 0.93928(5)
Zn8 Zn 0.42172(6) 0.69176(6) 0.90441(7)
N6 N 0.4366(3) 0.7416(3) 0.9500(4)
H1 H 0.5204 0.9422 0.9950
H2 H 0.5722 0.9897 0.9977
C16 C 0.4141(4) 0.7496(4) 0.9785(4)
H10 H 0.3931 0.7299 0.9787
C17 C 0.4654(4) 0.7708(3) 0.9507(5)
H11 H 0.4825 0.7652 0.9313
C18 C 0.4728(3) 0.8082(3) 0.9772(4)
H12 H 0.4942 0.8274 0.9768
N18 N 0.9391(3) 0.4886(3) 0.9540(4)
C52 C 0.9163(4) 0.4948(4) 0.9828(4)
H34 H 0.8965 0.4738 0.9842
C53 C 0.9674(4) 0.5174(3) 0.9517(5)
H35 H 0.9846 0.5114 0.9325
C54 C 0.9721(4) 0.5554(3) 0.9766(4)
H36 H 0.9911 0.5767 0.9730
Zn14 Zn 0.92215(6) 0.43865(6) 0.90744(7)
N51 N 0.3818(3) 0.7259(3) 0.8577(4)
I22_2 I 0.10622(5) 0.36416(4) 0.09247(6)
Zn11_2 Zn 0.12693(6) 0.29215(6) 0.06238(8)
N40_2 N 0.0825(3) 0.2485(4) 0.0597(3)
C112_2 C 0.0201(3) 0.1916(4) 0.0588(3)
C113_2 C 0.0376(4) 0.2130(4) 0.0975(5)
H73_2 H 0.0283 0.2092 0.1240
C114_2 C 0.0688(3) 0.2400(4) 0.0962(4)
H74_2 H 0.0815 0.2536 0.1231
C115_2 C 0.0643(3) 0.2289(4) 0.0222(4)
C116_2 C 0.0341(3) 0.1994(4) 0.0207(4)
N43_2 N 0.3163(3) 0.1581(3) 0.2561(4)
N44_2 N 0.2625(3) 0.1510(3) 0.1970(4)
N45_2 N 0.2790(3) 0.2210(3) 0.2310(3)
N47_2 N 0.1685(3) 0.2620(3) 0.1105(4)
N48_2 N 0.3780(3) 0.2752(3) 0.3625(4)
C127_2 C 0.2931(3) 0.1343(3) 0.2256(4)
C128_2 C 0.2569(4) 0.1946(3) 0.2010(4)
C129_2 C 0.3082(3) 0.2009(3) 0.2576(4)
C130_2 C 0.3010(3) 0.0858(3) 0.2245(5)
C131_2 C 0.3341(4) 0.0684(3) 0.2503(5)
H85_2 H 0.3526 0.0870 0.2684
C132_2 C 0.3400(4) 0.0233(3) 0.2494(5)
H86_2 H 0.3635 0.0118 0.2662
C133_2 C 0.2821(4) 0.0118(3) 0.2019(5)
C134_2 C 0.2745(4) 0.0566(3) 0.2004(5)
H88_2 H 0.2510 0.0675 0.1829
C135_2 C 0.2275(3) 0.2178(3) 0.1680(4)
C136_2 C 0.2057(3) 0.1956(4) 0.1317(4)
H89_2 H 0.2097 0.1651 0.1267
C137_2 C 0.1779(4) 0.2197(3) 0.1033(5)
H90_2 H 0.1646 0.2058 0.0769
C138_2 C 0.1903(3) 0.2824(4) 0.1448(4)
H91_2 H 0.1862 0.3131 0.1484
C139_2 C 0.2183(3) 0.2618(3) 0.1753(4)
H92_2 H 0.2313 0.2771 0.2010
C140_2 C 0.3317(3) 0.2266(3) 0.2944(3)
C141_2 C 0.3284(4) 0.2720(3) 0.2984(5)
H93_2 H 0.3104 0.2877 0.2766
C142_2 C 0.3508(4) 0.2949(4) 0.3334(4)
H94_2 H 0.3464 0.3256 0.3364
C143_2 C 0.3796(4) 0.2311(3) 0.3599(5)
H95_2 H 0.3973 0.2163 0.3826
C144_2 C 0.3578(4) 0.2050(4) 0.3270(4)
H96_2 H 0.3606 0.1737 0.3269
Zn13_2 Zn 0.41778(6) 0.31335(6) 0.40645(7)
I19_2 I 0.87010(4) 0.16396(4) 0.29673(5)
I20_2 I 0.76271(4) 0.13575(4) 0.19609(5)
N37_2 N 0.9645(3) 0.1716(3) 0.0896(3)
N38_2 N 0.9791(3) 0.1304(3) 0.0296(4)
N39_2 N 0.9273(3) 0.1074(3) 0.0643(3)
N42_2 N 0.8583(3) 0.1686(4) 0.1764(4)
C109_2 C 0.9864(3) 0.1628(3) 0.0605(4)
C110_2 C 0.9498(3) 0.1026(3) 0.0347(4)
C111_2 C 0.9346(3) 0.1448(3) 0.0885(4)
C117_2 C 0.9434(3) 0.0640(3) 0.0043(4)
C121_2 C 0.9143(4) 0.0342(4) 0.0070(5)
H80_2 H 0.8978 0.0384 0.0273
C122_2 C 0.9084(3) 0.1518(3) 0.1193(3)
C123_2 C 0.8716(3) 0.1333(4) 0.1121(4)
H81_2 H 0.8628 0.1143 0.0876
C124_2 C 0.8481(3) 0.1433(4) 0.1415(4)
H82_2 H 0.8227 0.1309 0.1360
C125_2 C 0.8926(3) 0.1876(4) 0.1826(4)
H83_2 H 0.9000 0.2072 0.2069
C126_2 C 0.9185(3) 0.1801(4) 0.1551(4)
H84_2 H 0.9431 0.1943 0.1609
I3_2 I 0.38023(4) 0.37202(4) 0.43827(5)
I4_2 I 0.46870(4) 0.33067(4) 0.36196(5)
I5_2 I 0.36257(4) 0.08529(4) 0.79346(5)
I6_2 I 0.25827(4) 0.11472(4) 0.68906(6)
Zn3_2 Zn 0.31999(6) 0.07005(6) 0.71753(8)
N24_2 N 0.3093(3) 0.0035(3) 0.7169(4)
H46_2 H 0.2579 0.0028 0.6759
N25_2 N 0.4780(3) 0.1204(3) 0.5301(4)
N26_2 N 0.4611(2) 0.0787(3) 0.5875(3)
N27_2 N 0.4255(3) 0.1429(3) 0.5611(3)
N28_2 N 0.5781(3) 0.0020(3) 0.5578(3)
N29_2 N 0.3544(3) 0.0801(3) 0.6732(3)
N30_2 N 0.4359(3) 0.2656(3) 0.4545(4)
C73_2 C 0.4833(3) 0.0874(3) 0.5588(4)
C74_2 C 0.4316(3) 0.1067(3) 0.5862(4)
C75_2 C 0.4504(3) 0.1492(3) 0.5346(4)
C76_2 C 0.5170(3) 0.0587(4) 0.5583(3)
C77_2 C 0.5303(3) 0.0519(3) 0.5202(4)
H49_2 H 0.5193 0.0680 0.4942
C78_2 C 0.5600(3) 0.0213(4) 0.5195(4)
H50_2 H 0.5674 0.0142 0.4924
C79_2 C 0.5645(3) 0.0076(4) 0.5941(4)
C80_2 C 0.5358(3) 0.0368(4) 0.5961(4)
H52_2 H 0.5285 0.0422 0.6235
C81_2 C 0.4049(3) 0.0994(4) 0.6172(3)
C82_2 C 0.4146(4) 0.0698(4) 0.6521(4)
H53_2 H 0.4384 0.0541 0.6564
C83_2 C 0.3898(3) 0.0632(5) 0.6805(5)
H54_2 H 0.3985 0.0459 0.7062
C84_2 C 0.3438(4) 0.1062(4) 0.6382(4)
H55_2 H 0.3184 0.1183 0.6328
C85_2 C 0.3671(3) 0.1168(4) 0.6093(4)
H56_2 H 0.3579 0.1354 0.5845
C86_2 C 0.4468(3) 0.1910(3) 0.5082(4)
C87_2 C 0.4192(4) 0.2223(3) 0.5118(5)
H57_2 H 0.4045 0.2195 0.5342
C88_2 C 0.4127(4) 0.2579(4) 0.4829(4)
H58_2 H 0.3915 0.2772 0.4833
C89_2 C 0.4651(3) 0.2375(3) 0.4555(5)
H59_2 H 0.4841 0.2453 0.4391
C90_2 C 0.4701(4) 0.1982(3) 0.4780(4)
H60_2 H 0.4887 0.1769 0.4732
N31_2 N 0.8178(3) 0.0912(3) 0.7483(4)
N32_2 N 0.7625(3) 0.0973(3) 0.6890(4)
N33_2 N 0.7794(3) 0.0270(3) 0.7256(4)
C91_2 C 0.7925(3) 0.1141(3) 0.7184(4)
C92_2 C 0.7590(4) 0.0521(3) 0.6926(4)
C93_2 C 0.8095(3) 0.0480(3) 0.7511(4)
C94_2 C 0.7996(3) 0.1621(3) 0.7165(5)
C95_2 C 0.8318(4) 0.1803(3) 0.7435(5)
H61_2 H 0.8509 0.1616 0.7606
C96_2 C 0.8366(4) 0.2252(3) 0.7456(5)
H62_2 H 0.8585 0.2368 0.7657
C97_2 C 0.7813(4) 0.2360(3) 0.6956(5)
H63_2 H 0.7629 0.2554 0.6783
C98_2 C 0.7736(4) 0.1915(3) 0.6920(5)
H64_2 H 0.7508 0.1810 0.6728
C99_2 C 0.7246(3) 0.0306(3) 0.6645(4)
C100_2 C 0.6999(3) 0.0544(4) 0.6313(4)
H65_2 H 0.7024 0.0855 0.6292
C101_2 C 0.6719(4) 0.0319(3) 0.6019(5)
H66_2 H 0.6562 0.0481 0.5785
C104_2 C 0.8327(3) 0.0236(3) 0.7898(4)
C107_2 C 0.8867(5) 0.0168(4) 0.8486(5)
H71_2 H 0.9098 0.0290 0.8658
C108_2 C 0.8651(4) 0.0429(4) 0.8162(4)
H72_2 H 0.8720 0.0727 0.8121
C118_2 C 0.9696(3) 0.0546(3) 0.9774(4)
H77_2 H 0.9913 0.0731 0.9771
C119_2 C 0.9627(4) 0.0168(3) 0.9510(5)
H78_2 H 0.9805 0.0097 0.9328
I1_2 I 0.64443(4) 0.96353(4) 0.48459(5)
I2_2 I 0.60358(4) 0.88594(4) 0.58966(6)
I7_2 I 0.10235(5) 0.63326(4) 0.60265(6)
I8_2 I 0.14385(5) 0.69682(6) 0.49165(6)
I17_2 I 0.97189(4) 0.92520(4) 0.86336(5)
I18_2 I 0.88000(4) 0.88328(4) 0.93839(5)
Zn1_2 Zn 0.62343(6) 0.95821(6) 0.55815(8)
Zn4_2 Zn 0.12385(6) 0.70063(6) 0.56490(8)
Zn9_2 Zn 0.91754(6) 0.94018(6) 0.90437(7)
N16_2 N 0.0817(3) 0.7456(4) 0.5604(3)
C40_2 C 0.0189(3) 0.8029(3) 0.5594(3)
C41_2 C 0.0319(3) 0.7946(4) 0.5208(4)
H25_2 H 0.0208 0.8088 0.4937
C42_2 C 0.0618(3) 0.7645(3) 0.5237(4)
H26_2 H 0.0690 0.7564 0.4968
C43_2 C 0.0686(3) 0.7565(4) 0.5970(4)
H27_2 H 0.0812 0.7429 0.6239
C44_2 C 0.0392(3) 0.7850(4) 0.5991(4)
H28_2 H 0.0327 0.7924 0.6266
N19_2 N 0.3178(3) 0.8411(3) 0.7500(4)
N20_2 N 0.2798(3) 0.7771(3) 0.7280(4)
N21_2 N 0.2629(3) 0.8446(3) 0.6919(4)
N23_2 N 0.1665(3) 0.7320(3) 0.6099(4)
C55_2 C 0.3103(3) 0.7983(3) 0.7529(4)
C56_2 C 0.2576(3) 0.8008(3) 0.6955(4)
C57_2 C 0.2921(3) 0.8630(3) 0.7194(4)
C58_2 C 0.3350(3) 0.7737(3) 0.7892(4)
C59_2 C 0.3662(3) 0.7930(4) 0.8173(4)
H37_2 H 0.3725 0.8231 0.8132
C60_2 C 0.3877(4) 0.7692(3) 0.8506(5)
H38_2 H 0.4082 0.7838 0.8702
C61_2 C 0.3512(4) 0.7064(4) 0.8309(4)
H39_2 H 0.3460 0.6762 0.8356
C62_2 C 0.3273(4) 0.7288(3) 0.7967(5)
H40_2 H 0.3060 0.7142 0.7785
C63_2 C 0.2257(3) 0.7782(3) 0.6661(4)
C64_2 C 0.2197(4) 0.7329(3) 0.6712(5)
H41_2 H 0.2355 0.7173 0.6950
C65_2 C 0.1911(4) 0.7105(4) 0.6419(4)
H42_2 H 0.1888 0.6793 0.6446
C66_2 C 0.1722(4) 0.7746(3) 0.6049(5)
H43_2 H 0.1560 0.7891 0.5807
C67_2 C 0.2000(3) 0.7996(4) 0.6323(4)
H44_2 H 0.2014 0.8307 0.6283
C68_2 C 0.2981(3) 0.9116(3) 0.7189(5)
C69_2 C 0.2703(4) 0.9399(3) 0.6944(5)
H45_2 H 0.2466 0.9281 0.6782
C70_2 C 0.2769(4) 0.9845(3) 0.6936(5)
C71_2 C 0.3363(4) 0.9760(3) 0.7414(6)
H47_2 H 0.3586 0.9885 0.7601
C72_2 C 0.3323(3) 0.9305(3) 0.7397(5)
H48_2 H 0.3535 0.9122 0.7532
H51_2 H 0.5752 0.9906 0.6196
N35_2 N 0.6655(3) 0.9883(3) 0.6046(4)
N36_2 N 0.8775(3) 0.9749(3) 0.8579(4)
C102_2 C 0.6898(4) 0.9673(4) 0.6369(5)
H67_2 H 0.6856 0.9365 0.6400
C103_2 C 0.7202(4) 0.9859(3) 0.6659(5)
H68_2 H 0.7377 0.9682 0.6864
C105_2 C 0.8245(4) 0.9798(3) 0.7962(4)
H69_2 H 0.8036 0.9656 0.7767
C106_2 C 0.8468(3) 0.9566(4) 0.8311(4)
H70_2 H 0.8402 0.9268 0.8360
N41_2 N 0.9328(3) 0.9906(3) 0.9499(4)
C120_2 C 0.9100(4) 0.9982(4) 0.9791(4)
H79_2 H 0.8900 0.9775 0.9806
I9 I 0.86217(4) 0.84002(4) 0.79178(5)
I10 I 0.75741(4) 0.86042(4) 0.68331(6)
I11 I 0.97520(4) 0.42549(4) 0.86391(5)
I12 I 0.88641(4) 0.37977(4) 0.94105(5)
I13 I 0.64691(4) 0.45556(4) 0.48985(5)
I14 I 0.60509(5) 0.38423(4) 0.59801(6)
I15_2 I 0.47602(4) 0.82150(4) 0.36254(5)
I16_2 I 0.38717(4) 0.86685(4) 0.43928(5)
Zn5 Zn 0.82057(6) 0.82010(6) 0.71609(8)
Zn7 Zn 0.62706(6) 0.45384(6) 0.56412(8)
N1 N 0.4807(3) 0.6169(3) 0.5295(4)
N2 N 0.4650(3) 0.5769(3) 0.5894(3)
N3 N 0.4280(3) 0.6402(3) 0.5614(3)
N4 N 0.5820(3) 0.4974(3) 0.5623(3)
N6_2 N 0.4366(3) 0.7584(3) 0.4500(4)
C1 C 0.4866(3) 0.5842(3) 0.5594(4)
C2 C 0.4363(3) 0.6062(3) 0.5894(4)
C3 C 0.4527(3) 0.6450(3) 0.5342(4)
C4 C 0.5215(3) 0.5564(4) 0.5611(3)
C5 C 0.5333(3) 0.5455(4) 0.5224(4)
H1_2 H 0.5204 0.5578 0.4950
C6 C 0.5637(3) 0.5168(4) 0.5242(4)
H2_2 H 0.5722 0.5103 0.4977
C7 C 0.5704(3) 0.5095(4) 0.5993(4)
H3 H 0.5843 0.4976 0.6265
C8 C 0.5403(3) 0.5374(4) 0.6008(4)
H4 H 0.5326 0.5437 0.6278
C9 C 0.4097(3) 0.5953(4) 0.6193(3)
C10 C 0.4220(4) 0.5668(4) 0.6554(4)
H5 H 0.4464 0.5522 0.6606
C11 C 0.3960(3) 0.5613(4) 0.6831(4)
H6 H 0.4035 0.5428 0.7082
C12 C 0.3501(4) 0.6062(4) 0.6409(4)
H7 H 0.3245 0.6179 0.6353
C13 C 0.3740(3) 0.6167(4) 0.6118(4)
H8 H 0.3664 0.6373 0.5884
C14 C 0.4466(3) 0.6844(3) 0.5045(4)
C15 C 0.4190(4) 0.7154(3) 0.5080(5)
H9 H 0.4038 0.7129 0.5299
C16_2 C 0.4141(4) 0.7504(4) 0.4785(4)
H10_2 H 0.3931 0.7701 0.4787
C17_2 C 0.4654(4) 0.7292(3) 0.4507(5)
H11_2 H 0.4825 0.7348 0.4313
C18_2 C 0.4728(3) 0.6918(3) 0.4772(4)
H12_2 H 0.4942 0.6726 0.4768
N7 N 0.8194(3) 0.5892(3) 0.7524(4)
N8 N 0.7819(3) 0.5261(3) 0.7311(3)
N9 N 0.7644(3) 0.5948(3) 0.6941(4)
N10 N 0.8818(3) 0.4755(3) 0.8639(4)
N11 N 0.6708(3) 0.4836(3) 0.6094(4)
N12 N 0.8094(3) 0.7531(3) 0.7173(4)
C19 C 0.8118(3) 0.5467(3) 0.7584(4)
C20 C 0.7611(3) 0.5513(3) 0.6991(4)
C21 C 0.7939(3) 0.6133(3) 0.7231(4)
C22 C 0.8361(3) 0.5220(3) 0.7948(4)
C23 C 0.8666(3) 0.5431(4) 0.8232(4)
H13 H 0.8726 0.5732 0.8191
C24 C 0.8875(4) 0.5187(3) 0.8571(5)
H14 H 0.9076 0.5333 0.8773
C25 C 0.8516(4) 0.4562(4) 0.8366(4)
H15 H 0.8460 0.4261 0.8416
C26 C 0.8283(4) 0.4781(3) 0.8017(4)
H16 H 0.8074 0.4633 0.7828
C27 C 0.7289(3) 0.5284(3) 0.6681(4)
C28 C 0.7205(4) 0.4841(3) 0.6754(5)
H17 H 0.7339 0.4688 0.7009
C29 C 0.6922(4) 0.4629(4) 0.6444(4)
H18 H 0.6877 0.4323 0.6482
C30 C 0.6821(4) 0.5249(3) 0.6024(5)
H19 H 0.6713 0.5376 0.5745
C31 C 0.7079(4) 0.5509(4) 0.6318(4)
H20 H 0.7109 0.5817 0.6274
C32 C 0.8006(3) 0.6616(3) 0.7206(5)
C33 C 0.7706(4) 0.6887(3) 0.7003(6)
H21 H 0.7459 0.6763 0.6882
C34 C 0.7761(4) 0.7337(3) 0.6973(6)
H22 H 0.7558 0.7513 0.6808
C35 C 0.8367(4) 0.7268(3) 0.7412(5)
H23 H 0.8595 0.7404 0.7575
C36 C 0.8338(3) 0.6814(3) 0.7436(5)
H24 H 0.8542 0.6643 0.7606
N13 N 0.9798(3) 0.8668(3) 0.5281(4)
N14 N 0.9622(3) 0.8257(3) 0.5862(4)
N15 N 0.9266(3) 0.8900(3) 0.5594(3)
N17 N 0.8562(3) 0.8289(3) 0.6708(4)
C37 C 0.9870(3) 0.8349(3) 0.5588(4)
C38 C 0.9338(3) 0.8543(3) 0.5857(4)
C39 C 0.9518(3) 0.8954(3) 0.5331(4)
C45 C 0.9065(3) 0.8465(4) 0.6155(3)
C46 C 0.9159(3) 0.8160(4) 0.6499(4)
H29 H 0.9401 0.8008 0.6550
C47 C 0.8898(3) 0.8085(4) 0.6763(4)
H30 H 0.8963 0.7875 0.6995
C48 C 0.8463(3) 0.8575(4) 0.6368(3)
H31 H 0.8225 0.8732 0.6330
C49 C 0.8702(3) 0.8644(4) 0.6074(4)
H32 H 0.8614 0.8816 0.5815
C50 C 0.9485(3) 0.9375(3) 0.5075(4)
C51 C 0.9209(4) 0.9690(3) 0.5109(4)
H33 H 0.9052 0.9660 0.5323
C53_2 C 0.9674(4) 0.9826(3) 0.4517(5)
H35_2 H 0.9846 0.9886 0.4325
C54_2 C 0.9721(4) 0.9446(3) 0.4766(4)
H36_2 H 0.9911 0.9233 0.4730
I11_2 I 0.97520(4) 0.07451(4) 0.36391(5)
I12_2 I 0.88641(4) 0.12023(4) 0.44105(5)
I14_2 I 0.60509(5) 0.11577(4) 0.09801(6)
Zn6 Zn 0.92215(6) 0.06135(6) 0.40744(7)
Zn7_2 Zn 0.62706(6) 0.04616(6) 0.06412(8)
N4_2 N 0.5820(3) 0.0026(3) 0.0623(3)
H3_2 H 0.5843 0.0024 0.1265
N10_2 N 0.8818(3) 0.0245(3) 0.3639(4)
N11_2 N 0.6708(3) 0.0164(3) 0.1094(4)
C25_2 C 0.8516(4) 0.0438(4) 0.3366(4)
H15_2 H 0.8460 0.0739 0.3416
C26_2 C 0.8283(4) 0.0219(3) 0.3017(4)
H16_2 H 0.8074 0.0367 0.2828
C28_2 C 0.7205(4) 0.0159(3) 0.1754(5)
H17_2 H 0.7339 0.0312 0.2009
C29_2 C 0.6922(4) 0.0371(4) 0.1444(4)
H18_2 H 0.6877 0.0677 0.1482
N50 N 0.9391(3) 0.0114(3) 0.4540(4)
C52_2 C 0.9163(4) 0.0052(4) 0.4828(4)
H34_2 H 0.8965 0.0262 0.4842
I13_2 I 0.64691(4) 0.04444(4) 0.98985(5)
I9_2 I 0.86217(4) 0.65998(4) 0.29178(5)
I10_2 I 0.75741(4) 0.63958(4) 0.18331(6)
Zn5_2 Zn 0.82057(6) 0.67990(6) 0.21609(8)
N1_2 N 0.4807(3) 0.8831(3) 0.0295(4)
N2_2 N 0.4650(3) 0.9231(3) 0.0894(3)
N3_2 N 0.4280(3) 0.8598(3) 0.0614(3)
N5 N 0.3613(3) 0.9196(3) 0.1765(3)
C1_2 C 0.4866(3) 0.9158(3) 0.0594(4)
C2_2 C 0.4363(3) 0.8938(3) 0.0894(4)
C3_2 C 0.4527(3) 0.8550(3) 0.0342(4)
C4_2 C 0.5215(3) 0.9436(4) 0.0611(3)
C5_2 C 0.5333(3) 0.9545(4) 0.0224(4)
C6_2 C 0.5637(3) 0.9832(4) 0.0242(4)
C7_2 C 0.5704(3) 0.9905(4) 0.0993(4)
C8_2 C 0.5403(3) 0.9626(4) 0.1008(4)
H4_2 H 0.5326 0.9563 0.1278
C9_2 C 0.4097(3) 0.9047(4) 0.1193(3)
C10_2 C 0.4220(4) 0.9332(4) 0.1554(4)
H5_2 H 0.4464 0.9478 0.1606
C11_2 C 0.3960(3) 0.9387(4) 0.1831(4)
H6_2 H 0.4035 0.9572 0.2082
C12_2 C 0.3501(4) 0.8938(4) 0.1409(4)
H7_2 H 0.3245 0.8821 0.1353
C13_2 C 0.3740(3) 0.8833(4) 0.1118(4)
H8_2 H 0.3664 0.8627 0.0884
C14_2 C 0.4466(3) 0.8156(3) 0.0045(4)
C15_2 C 0.4190(4) 0.7846(3) 0.0080(5)
H9_2 H 0.4038 0.7871 0.0299
N7_2 N 0.8194(3) 0.9108(3) 0.2524(4)
N8_2 N 0.7819(3) 0.9739(3) 0.2311(3)
N9_2 N 0.7644(3) 0.9052(3) 0.1941(4)
N12_2 N 0.8094(3) 0.7469(3) 0.2173(4)
C19_2 C 0.8118(3) 0.9533(3) 0.2584(4)
C20_2 C 0.7611(3) 0.9487(3) 0.1991(4)
C21_2 C 0.7939(3) 0.8867(3) 0.2231(4)
C22_2 C 0.8361(3) 0.9780(3) 0.2948(4)
C23_2 C 0.8666(3) 0.9569(4) 0.3232(4)
H13_2 H 0.8726 0.9268 0.3191
C24_2 C 0.8875(4) 0.9813(3) 0.3571(5)
H14_2 H 0.9076 0.9667 0.3773
C27_2 C 0.7289(3) 0.9716(3) 0.1681(4)
C30_2 C 0.6821(4) 0.9751(3) 0.1024(5)
H19_2 H 0.6713 0.9624 0.0745
C31_2 C 0.7079(4) 0.9491(4) 0.1318(4)
H20_2 H 0.7109 0.9183 0.1274
C32_2 C 0.8006(3) 0.8384(3) 0.2206(5)
C33_2 C 0.7706(4) 0.8113(3) 0.2003(6)
H21_2 H 0.7459 0.8237 0.1882
C34_2 C 0.7761(4) 0.7663(3) 0.1973(6)
H22_2 H 0.7558 0.7487 0.1808
C35_2 C 0.8367(4) 0.7732(3) 0.2412(5)
H23_2 H 0.8595 0.7596 0.2575
C36_2 C 0.8338(3) 0.8186(3) 0.2436(5)
H24_2 H 0.8542 0.8357 0.2606
N13_2 N 0.9798(3) 0.6332(3) 0.0281(4)
N14_2 N 0.9622(3) 0.6743(3) 0.0862(4)
N15_2 N 0.9266(3) 0.6100(3) 0.0594(3)
N17_2 N 0.8562(3) 0.6711(3) 0.1708(4)
C37_2 C 0.9870(3) 0.6651(3) 0.0588(4)
C38_2 C 0.9338(3) 0.6457(3) 0.0857(4)
C39_2 C 0.9518(3) 0.6046(3) 0.0331(4)
C45_2 C 0.9065(3) 0.6535(4) 0.1155(3)
C46_2 C 0.9159(3) 0.6840(4) 0.1499(4)
H29_2 H 0.9401 0.6992 0.1550
C47_2 C 0.8898(3) 0.6915(4) 0.1763(4)
H30_2 H 0.8963 0.7125 0.1995
C48_2 C 0.8463(3) 0.6425(4) 0.1368(3)
H31_2 H 0.8225 0.6268 0.1330
C49_2 C 0.8702(3) 0.6356(4) 0.1074(4)
H32_2 H 0.8614 0.6184 0.0815
C50_2 C 0.9485(3) 0.5625(3) 0.0075(4)
C51_2 C 0.9209(4) 0.5310(3) 0.0109(4)
H33_2 H 0.9052 0.5340 0.0323
Zn17 Zn 0.32800(6) 0.92857(6) 0.22547(8)
I23_2 I 0.37359(4) 0.91303(4) 0.29928(5)
I24_2 I 0.26584(4) 0.88409(4) 0.20038(6)
N46_2 N 0.3144(3) 0.9948(3) 0.2262(4)
H87_2 H 0.2636 0.9924 0.1849
I9_3 I 0.13783(4) 0.15998(4) 0.20822(5)
I10_3 I 0.24259(4) 0.13958(4) 0.31669(6)
I11_3 I 0.02480(4) 0.57451(4) 0.13609(5)
I12_3 I 0.11359(4) 0.62023(4) 0.05895(5)
I13_3 I 0.35309(4) 0.54444(4) 0.51015(5)
I14_3 I 0.39491(5) 0.61577(4) 0.40199(6)
I15_3 I 0.52398(4) 0.17850(4) 0.63746(5)
I16_3 I 0.61283(4) 0.13315(4) 0.56072(5)
Zn5_3 Zn 0.17943(6) 0.17990(6) 0.28391(8)
Zn6_2 Zn 0.07785(6) 0.56135(6) 0.09256(7)
Zn7_3 Zn 0.37294(6) 0.54616(6) 0.43588(8)
Zn8_2 Zn 0.57828(6) 0.19176(6) 0.59559(7)
N1_3 N 0.5193(3) 0.3831(3) 0.4705(4)
N2_3 N 0.5350(3) 0.4231(3) 0.4106(3)
N3_3 N 0.5720(3) 0.3598(3) 0.4386(3)
N4_3 N 0.4180(3) 0.5026(3) 0.4377(3)
N5_2 N 0.6387(3) 0.4196(3) 0.3235(3)
N6_3 N 0.5634(3) 0.2416(3) 0.5500(4)
C1_3 C 0.5134(3) 0.4158(3) 0.4406(4)
C2_3 C 0.5637(3) 0.3938(3) 0.4106(4)
C3_3 C 0.5473(3) 0.3550(3) 0.4658(4)
C4_3 C 0.4785(3) 0.4436(4) 0.4389(3)
C5_3 C 0.4667(3) 0.4545(4) 0.4776(4)
H1_3 H 0.4796 0.4422 0.5050
C6_3 C 0.4363(3) 0.4832(4) 0.4758(4)
H2_3 H 0.4278 0.4897 0.5023
C7_3 C 0.4296(3) 0.4905(4) 0.4007(4)
H3_3 H 0.4157 0.5024 0.3735
C8_3 C 0.4597(3) 0.4626(4) 0.3992(4)
H4_3 H 0.4674 0.4563 0.3722
C9_3 C 0.5903(3) 0.4047(4) 0.3807(3)
C10_3 C 0.5780(4) 0.4332(4) 0.3446(4)
H5_3 H 0.5536 0.4478 0.3394
C11_3 C 0.6040(3) 0.4387(4) 0.3169(4)
H6_3 H 0.5965 0.4572 0.2918
C12_3 C 0.6499(4) 0.3938(4) 0.3591(4)
H7_3 H 0.6755 0.3821 0.3647
C13_3 C 0.6260(3) 0.3833(4) 0.3882(4)
H8_3 H 0.6336 0.3627 0.4116
C14_3 C 0.5534(3) 0.3156(3) 0.4955(4)
C15_3 C 0.5810(4) 0.2846(3) 0.4920(5)
H9_3 H 0.5962 0.2871 0.4701
C16_3 C 0.5859(4) 0.2496(4) 0.5215(4)
H10_3 H 0.6069 0.2299 0.5213
C17_3 C 0.5346(4) 0.2708(3) 0.5493(5)
H11_3 H 0.5175 0.2652 0.5687
C18_3 C 0.5272(3) 0.3082(3) 0.5228(4)
H12_3 H 0.5058 0.3274 0.5232
N7_3 N 0.1806(3) 0.4108(3) 0.2476(4)
N8_3 N 0.2181(3) 0.4739(3) 0.2689(3)
N9_3 N 0.2356(3) 0.4052(3) 0.3059(4)
N10_3 N 0.1182(3) 0.5245(3) 0.1361(4)
N11_3 N 0.3292(3) 0.5164(3) 0.3906(4)
N12_3 N 0.1906(3) 0.2469(3) 0.2827(4)
C19_3 C 0.1882(3) 0.4533(3) 0.2416(4)
C20_3 C 0.2389(3) 0.4487(3) 0.3009(4)
C21_3 C 0.2061(3) 0.3867(3) 0.2769(4)
C22_3 C 0.1639(3) 0.4780(3) 0.2052(4)
C23_3 C 0.1334(3) 0.4569(4) 0.1768(4)
H13_3 H 0.1274 0.4268 0.1809
C24_3 C 0.1125(4) 0.4813(3) 0.1429(5)
H14_3 H 0.0924 0.4667 0.1227
C25_3 C 0.1484(4) 0.5438(4) 0.1634(4)
H15_3 H 0.1540 0.5739 0.1584
C26_3 C 0.1717(4) 0.5219(3) 0.1983(4)
H16_3 H 0.1926 0.5367 0.2172
C27_3 C 0.2711(3) 0.4716(3) 0.3319(4)
C28_3 C 0.2795(4) 0.5159(3) 0.3246(5)
H17_3 H 0.2661 0.5312 0.2991
C29_3 C 0.3078(4) 0.5371(4) 0.3556(4)
H18_3 H 0.3123 0.5677 0.3518
C30_3 C 0.3179(4) 0.4751(3) 0.3976(5)
H19_3 H 0.3287 0.4624 0.4255
C31_3 C 0.2921(4) 0.4491(4) 0.3682(4)
H20_3 H 0.2891 0.4183 0.3726
C32_3 C 0.1994(3) 0.3384(3) 0.2794(5)
C33_3 C 0.2294(4) 0.3113(3) 0.2997(6)
H21_3 H 0.2541 0.3237 0.3118
C34_3 C 0.2239(4) 0.2663(3) 0.3027(6)
H22_3 H 0.2442 0.2487 0.3192
C35_3 C 0.1633(4) 0.2732(3) 0.2588(5)
H23_3 H 0.1405 0.2596 0.2425
C36_3 C 0.1662(3) 0.3186(3) 0.2564(5)
H24_3 H 0.1458 0.3357 0.2394
N13_3 N 0.0202(3) 0.1332(3) 0.4719(4)
N14_3 N 0.0378(3) 0.1743(3) 0.4138(4)
N15_3 N 0.0734(3) 0.1100(3) 0.4406(3)
N17_3 N 0.1438(3) 0.1711(3) 0.3292(4)
C37_3 C 0.0130(3) 0.1651(3) 0.4412(4)
C38_3 C 0.0662(3) 0.1457(3) 0.4143(4)
C39_3 C 0.0482(3) 0.1046(3) 0.4669(4)
C45_3 C 0.0935(3) 0.1535(4) 0.3845(3)
C46_3 C 0.0841(3) 0.1840(4) 0.3501(4)
H29_3 H 0.0599 0.1992 0.3450
C47_3 C 0.1102(3) 0.1915(4) 0.3237(4)
H30_3 H 0.1037 0.2125 0.3005
C48_3 C 0.1537(3) 0.1425(4) 0.3632(3)
H31_3 H 0.1775 0.1268 0.3670
C49_3 C 0.1298(3) 0.1356(4) 0.3926(4)
H32_3 H 0.1386 0.1184 0.4185
C50_3 C 0.0515(3) 0.0625(3) 0.4925(4)
C51_3 C 0.0791(4) 0.0310(3) 0.4891(4)
H33_3 H 0.0948 0.0340 0.4677
C53_3 C 0.0326(4) 0.0174(3) 0.5483(5)
H35_3 H 0.0154 0.0114 0.5675
C54_3 C 0.0279(4) 0.0554(3) 0.5234(4)
H36_3 H 0.0089 0.0767 0.5270
Zn17_2 Zn 0.67200(6) 0.42857(6) 0.27453(8)
N50_2 N 0.0609(3) 0.5114(3) 0.0460(4)
N51_2 N 0.6182(3) 0.2259(3) 0.6423(4)
I1_3 I 0.35557(4) 0.03647(4) 0.51541(5)
I2_3 I 0.39642(4) 0.11406(4) 0.41034(6)
I7_3 I 0.89765(5) 0.36674(4) 0.39735(6)
I8_3 I 0.85615(5) 0.30318(6) 0.50835(6)
I17_3 I 0.02811(4) 0.07480(4) 0.13664(5)
I18_3 I 0.12000(4) 0.11672(4) 0.06161(5)
Zn1_3 Zn 0.37657(6) 0.04179(6) 0.44185(8)
Zn4_3 Zn 0.87615(6) 0.29937(6) 0.43510(8)
Zn9_3 Zn 0.08246(6) 0.05982(6) 0.09563(7)
N16_3 N 0.9183(3) 0.2544(4) 0.4396(3)
C40_3 C 0.9811(3) 0.1971(3) 0.4406(3)
C41_3 C 0.9681(3) 0.2054(4) 0.4792(4)
H25_3 H 0.9792 0.1912 0.5063
C42_3 C 0.9382(3) 0.2355(3) 0.4763(4)
H26_3 H 0.9310 0.2436 0.5032
C43_3 C 0.9314(3) 0.2435(4) 0.4030(4)
H27_3 H 0.9188 0.2571 0.3761
C44_3 C 0.9608(3) 0.2150(4) 0.4009(4)
H28_3 H 0.9673 0.2076 0.3734
N19_3 N 0.6822(3) 0.1589(3) 0.2500(4)
N20_3 N 0.7202(3) 0.2229(3) 0.2720(4)
N21_3 N 0.7371(3) 0.1554(3) 0.3081(4)
N22_2 N 0.6182(3) 0.2741(3) 0.1423(4)
N23_3 N 0.8335(3) 0.2680(3) 0.3901(4)
C55_3 C 0.6897(3) 0.2017(3) 0.2471(4)
C56_3 C 0.7424(3) 0.1992(3) 0.3045(4)
C57_3 C 0.7079(3) 0.1370(3) 0.2806(4)
C58_3 C 0.6650(3) 0.2263(3) 0.2108(4)
C59_3 C 0.6338(3) 0.2070(4) 0.1827(4)
H37_3 H 0.6275 0.1769 0.1868
C60_3 C 0.6123(4) 0.2308(3) 0.1494(5)
H38_3 H 0.5918 0.2162 0.1298
C61_3 C 0.6488(4) 0.2936(4) 0.1691(4)
H39_3 H 0.6540 0.3238 0.1644
C62_3 C 0.6727(4) 0.2712(3) 0.2033(5)
H40_3 H 0.6940 0.2858 0.2215
C63_3 C 0.7743(3) 0.2218(3) 0.3339(4)
C64_3 C 0.7803(4) 0.2671(3) 0.3288(5)
H41_3 H 0.7645 0.2827 0.3050
C65_3 C 0.8089(4) 0.2895(4) 0.3581(4)
H42_3 H 0.8112 0.3207 0.3554
C66_3 C 0.8278(4) 0.2254(3) 0.3951(5)
H43_3 H 0.8440 0.2109 0.4193
C67_3 C 0.8000(3) 0.2004(4) 0.3677(4)
H44_3 H 0.7986 0.1693 0.3717
C68_3 C 0.7019(3) 0.0884(3) 0.2811(5)
C69_3 C 0.7297(4) 0.0601(3) 0.3056(5)
H45_3 H 0.7534 0.0719 0.3218
C70_3 C 0.7231(4) 0.0155(3) 0.3064(5)
C71_3 C 0.6637(4) 0.0240(3) 0.2586(6)
H47_3 H 0.6414 0.0115 0.2399
C72_3 C 0.6677(3) 0.0695(3) 0.2603(5)
H48_3 H 0.6465 0.0878 0.2468
H51_3 H 0.4248 0.0094 0.3804
N35_3 N 0.3345(3) 0.0117(3) 0.3954(4)
N36_3 N 0.1225(3) 0.0251(3) 0.1421(4)
C102_3 C 0.3102(4) 0.0327(4) 0.3631(5)
H67_3 H 0.3144 0.0635 0.3600
C103_3 C 0.2798(4) 0.0141(3) 0.3341(5)
H68_3 H 0.2623 0.0318 0.3136
C105_3 C 0.1755(4) 0.0202(3) 0.2038(4)
H69_3 H 0.1964 0.0344 0.2233
C106_3 C 0.1532(3) 0.0434(4) 0.1689(4)
H70_3 H 0.1598 0.0732 0.1640
N41_3 N 0.0672(3) 0.0094(3) 0.0501(4)
C120_3 C 0.0900(4) 0.0018(4) 0.0209(4)
H79_3 H 0.1100 0.0225 0.0194
Zn15_2 Zn 0.57828(6) 0.30824(6) 0.09559(7)
I3_3 I 0.61977(4) 0.62798(4) 0.56173(5)
I4_3 I 0.53130(4) 0.66933(4) 0.63804(5)
I5_3 I 0.63743(4) 0.91471(4) 0.20654(5)
I6_3 I 0.74173(4) 0.88528(4) 0.31094(6)
Zn2 Zn 0.58222(6) 0.68665(6) 0.59355(7)
Zn3_3 Zn 0.68001(6) 0.92995(6) 0.28247(8)
N24_3 N 0.6907(3) 0.9965(3) 0.2831(4)
H46_3 H 0.7421 0.9972 0.3241
N25_3 N 0.5220(3) 0.8796(3) 0.4699(4)
N26_3 N 0.5389(2) 0.9213(3) 0.4125(3)
N27_3 N 0.5745(3) 0.8571(3) 0.4389(3)
N28_3 N 0.4219(3) 0.9980(3) 0.4422(3)
N29_3 N 0.6456(3) 0.9199(3) 0.3268(3)
N30_3 N 0.5641(3) 0.7344(3) 0.5455(4)
C73_3 C 0.5167(3) 0.9126(3) 0.4412(4)
C74_3 C 0.5684(3) 0.8933(3) 0.4138(4)
C75_3 C 0.5496(3) 0.8508(3) 0.4654(4)
C76_3 C 0.4830(3) 0.9413(4) 0.4417(3)
C77_3 C 0.4697(3) 0.9481(3) 0.4798(4)
H49_3 H 0.4807 0.9320 0.5058
C78_3 C 0.4400(3) 0.9787(4) 0.4805(4)
H50_3 H 0.4326 0.9858 0.5076
C79_3 C 0.4355(3) 0.9924(4) 0.4059(4)
C80_3 C 0.4642(3) 0.9632(4) 0.4039(4)
H52_3 H 0.4715 0.9578 0.3765
C81_3 C 0.5951(3) 0.9006(4) 0.3828(3)
C82_3 C 0.5854(4) 0.9302(4) 0.3479(4)
H53_3 H 0.5616 0.9459 0.3436
C83_3 C 0.6102(3) 0.9368(5) 0.3195(5)
H54_3 H 0.6015 0.9541 0.2938
C84_3 C 0.6562(4) 0.8938(4) 0.3618(4)
H55_3 H 0.6816 0.8817 0.3672
C85_3 C 0.6329(3) 0.8832(4) 0.3907(4)
H56_3 H 0.6421 0.8646 0.4155
C86_3 C 0.5532(3) 0.8090(3) 0.4918(4)
C87_3 C 0.5808(4) 0.7777(3) 0.4882(5)
H57_3 H 0.5955 0.7805 0.4658
C88_3 C 0.5873(4) 0.7421(4) 0.5171(4)
H58_3 H 0.6085 0.7228 0.5167
C89_3 C 0.5349(3) 0.7625(3) 0.5445(5)
H59_3 H 0.5159 0.7547 0.5609
C90_3 C 0.5299(4) 0.8018(3) 0.5220(4)
H60_3 H 0.5113 0.8231 0.5268
N31_3 N 0.1822(3) 0.9088(3) 0.2517(4)
N32_3 N 0.2375(3) 0.9027(3) 0.3110(4)
N33_3 N 0.2206(3) 0.9730(3) 0.2744(4)
N34_2 N 0.1882(3) 0.7460(3) 0.2792(4)
C91_3 C 0.2075(3) 0.8859(3) 0.2816(4)
C92_3 C 0.2410(4) 0.9479(3) 0.3074(4)
C93_3 C 0.1905(3) 0.9520(3) 0.2489(4)
C94_3 C 0.2004(3) 0.8379(3) 0.2835(5)
C95_3 C 0.1682(4) 0.8197(3) 0.2565(5)
H61_3 H 0.1491 0.8384 0.2394
C96_3 C 0.1634(4) 0.7748(3) 0.2544(5)
H62_3 H 0.1415 0.7632 0.2343
C97_3 C 0.2187(4) 0.7640(3) 0.3044(5)
H63_3 H 0.2371 0.7446 0.3217
C98_3 C 0.2264(4) 0.8085(3) 0.3080(5)
H64_3 H 0.2492 0.8190 0.3272
C99_3 C 0.2754(3) 0.9694(3) 0.3355(4)
C100_3 C 0.3001(3) 0.9456(4) 0.3687(4)
H65_3 H 0.2976 0.9145 0.3708
C101_3 C 0.3281(4) 0.9681(3) 0.3981(5)
H66_3 H 0.3438 0.9519 0.4215
C104_3 C 0.1673(3) 0.9764(3) 0.2102(4)
C107_3 C 0.1133(5) 0.9832(4) 0.1514(5)
H71_3 H 0.0902 0.9710 0.1342
C108_3 C 0.1349(4) 0.9571(4) 0.1838(4)
H72_3 H 0.1280 0.9273 0.1879
C118_3 C 0.0304(3) 0.9454(3) 0.0226(4)
H77_3 H 0.0087 0.9269 0.0229
C119_3 C 0.0373(4) 0.9832(3) 0.0490(5)
H78_3 H 0.0195 0.9903 0.0672
Zn16_2 Zn 0.17469(6) 0.67941(6) 0.27787(8)
N53 N 0.6220(3) 0.7248(3) 0.6375(4)
I19_3 I 0.12990(4) 0.83604(4) 0.70327(5)
I20_3 I 0.23729(4) 0.86425(4) 0.80391(5)
Zn10_2 Zn 0.17469(6) 0.82059(6) 0.77787(8)
N37_3 N 0.0355(3) 0.8284(3) 0.9104(3)
N38_3 N 0.0209(3) 0.8696(3) 0.9704(4)
N39_3 N 0.0727(3) 0.8926(3) 0.9357(3)
N42_3 N 0.1417(3) 0.8314(4) 0.8236(4)
C109_3 C 0.0136(3) 0.8372(3) 0.9395(4)
C110_3 C 0.0502(3) 0.8974(3) 0.9653(4)
C111_3 C 0.0654(3) 0.8552(3) 0.9115(4)
C117_3 C 0.0566(3) 0.9360(3) 0.9957(4)
C121_3 C 0.0857(4) 0.9658(4) 0.9930(5)
H80_3 H 0.1022 0.9616 0.9727
C122_3 C 0.0916(3) 0.8482(3) 0.8807(3)
C123_3 C 0.1284(3) 0.8667(4) 0.8879(4)
H81_3 H 0.1372 0.8857 0.9124
C124_3 C 0.1519(3) 0.8567(4) 0.8585(4)
H82_3 H 0.1773 0.8691 0.8640
C125_3 C 0.1074(3) 0.8124(4) 0.8174(4)
H83_3 H 0.1000 0.7928 0.7931
C126_3 C 0.0815(3) 0.8199(4) 0.8449(4)
H84_3 H 0.0569 0.8057 0.8391
N52_2 N 0.1882(3) 0.7540(3) 0.7792(4)
I22_3 I 0.89378(5) 0.63584(4) 0.90753(6)
Zn11_3 Zn 0.87307(6) 0.70785(6) 0.93762(8)
N40_3 N 0.9175(3) 0.7515(4) 0.9403(3)
C112_3 C 0.9799(3) 0.8084(4) 0.9412(3)
C113_3 C 0.9624(4) 0.7870(4) 0.9025(5)
H73_3 H 0.9717 0.7908 0.8760
C114_3 C 0.9312(3) 0.7600(4) 0.9038(4)
H74_3 H 0.9185 0.7464 0.8769
C115_3 C 0.9357(3) 0.7711(4) 0.9778(4)
C116_3 C 0.9659(3) 0.8006(4) 0.9793(4)
N43_3 N 0.6837(3) 0.8419(3) 0.7439(4)
N44_3 N 0.7375(3) 0.8490(3) 0.8030(4)
N45_3 N 0.7210(3) 0.7790(3) 0.7690(3)
N47_3 N 0.8315(3) 0.7380(3) 0.8895(4)
C127_3 C 0.7069(3) 0.8657(3) 0.7744(4)
C128_3 C 0.7431(4) 0.8054(3) 0.7990(4)
C129_3 C 0.6918(3) 0.7991(3) 0.7424(4)
C130_3 C 0.6990(3) 0.9142(3) 0.7755(5)
C131_3 C 0.6659(4) 0.9316(3) 0.7497(5)
H85_3 H 0.6474 0.9130 0.7316
C132_3 C 0.6600(4) 0.9767(3) 0.7506(5)
H86_3 H 0.6365 0.9882 0.7338
C133_3 C 0.7179(4) 0.9882(3) 0.7981(5)
C134_3 C 0.7255(4) 0.9434(3) 0.7996(5)
H88_3 H 0.7490 0.9325 0.8171
C135_3 C 0.7725(3) 0.7822(3) 0.8320(4)
C136_3 C 0.7943(3) 0.8044(4) 0.8683(4)
H89_3 H 0.7903 0.8349 0.8733
C137_3 C 0.8221(4) 0.7803(3) 0.8967(5)
H90_3 H 0.8354 0.7942 0.9231
C138_3 C 0.8097(3) 0.7176(4) 0.8552(4)
H91_3 H 0.8138 0.6869 0.8516
C139_3 C 0.7817(3) 0.7382(3) 0.8247(4)
H92_3 H 0.7687 0.7229 0.7990
C140_3 C 0.6683(3) 0.7734(3) 0.7056(3)
C141_3 C 0.6716(4) 0.7280(3) 0.7016(5)
H93_3 H 0.6896 0.7123 0.7234
C142_3 C 0.6492(4) 0.7051(4) 0.6666(4)
H94_3 H 0.6536 0.6744 0.6636
C143_3 C 0.6204(4) 0.7689(3) 0.6401(5)
H95_3 H 0.6027 0.7837 0.6174
C144_3 C 0.6422(4) 0.7950(4) 0.6730(4)
H96_3 H 0.6394 0.8263 0.6731
I15_4 I 0.52398(4) 0.32150(4) 0.13746(5)
I16_4 I 0.61283(4) 0.36685(4) 0.06072(5)
N6_4 N 0.5634(3) 0.2584(3) 0.0500(4)
H1_4 H 0.4796 0.0578 0.0050
H2_4 H 0.4278 0.0103 0.0023
C16_4 C 0.5859(4) 0.2504(4) 0.0215(4)
H10_4 H 0.6069 0.2701 0.0213
C17_4 C 0.5346(4) 0.2292(3) 0.0493(5)
H11_4 H 0.5175 0.2348 0.0687
C18_4 C 0.5272(3) 0.1918(3) 0.0228(4)
H12_4 H 0.5058 0.1726 0.0232
C52_3 C 0.0837(4) 0.5052(4) 0.0172(4)
H34_3 H 0.1035 0.5262 0.0158
C53_4 C 0.0326(4) 0.4826(3) 0.0483(5)
H35_4 H 0.0154 0.4886 0.0675
C54_4 C 0.0279(4) 0.4446(3) 0.0234(4)
H36_4 H 0.0089 0.4233 0.0270
I1_4 I 0.35557(4) 0.46353(4) 0.01541(5)
I3_4 I 0.61977(4) 0.87202(4) 0.06173(5)
I4_4 I 0.53130(4) 0.83067(4) 0.13804(5)
I8_4 I 0.85615(5) 0.19682(6) 0.00835(6)
Zn2_2 Zn 0.58222(6) 0.81335(6) 0.09355(7)
H25_4 H 0.9792 0.3088 0.0063
H26_4 H 0.9310 0.2564 0.0032
N30_4 N 0.5641(3) 0.7656(3) 0.0455(4)
H49_4 H 0.4807 0.5680 0.0058
H50_4 H 0.4326 0.5142 0.0076
C88_4 C 0.5873(4) 0.7579(4) 0.0171(4)
H58_4 H 0.6085 0.7772 0.0167
C89_4 C 0.5349(3) 0.7375(3) 0.0445(5)
H59_4 H 0.5159 0.7453 0.0609
C90_4 C 0.5299(4) 0.6982(3) 0.0220(4)
H60_4 H 0.5113 0.6769 0.0268
N53_2 N 0.6220(3) 0.7752(3) 0.1375(4)
I2_4 I 0.39642(4) 0.38594(4) 0.91034(6)
I5_4 I 0.63743(4) 0.58529(4) 0.70654(5)
I6_4 I 0.74173(4) 0.61472(4) 0.81094(6)
I7_4 I 0.89765(5) 0.13326(4) 0.89735(6)
I17_4 I 0.02811(4) 0.42520(4) 0.63664(5)
I18_4 I 0.12000(4) 0.38328(4) 0.56161(5)
I19_4 I 0.12990(4) 0.66396(4) 0.20327(5)
I20_4 I 0.23729(4) 0.63575(4) 0.30391(5)
Zn1_4 Zn 0.37657(6) 0.45821(6) 0.94185(8)
Zn3_4 Zn 0.68001(6) 0.57005(6) 0.78247(8)
Zn4_4 Zn 0.87615(6) 0.20063(6) 0.93510(8)
Zn9_4 Zn 0.08246(6) 0.44018(6) 0.59563(7)
N16_4 N 0.9183(3) 0.2456(4) 0.9396(3)
C40_4 C 0.9811(3) 0.3029(3) 0.9406(3)
C41_4 C 0.9681(3) 0.2946(4) 0.9792(4)
C42_4 C 0.9382(3) 0.2645(3) 0.9763(4)
C43_4 C 0.9314(3) 0.2565(4) 0.9030(4)
H27_4 H 0.9188 0.2429 0.8761
C44_4 C 0.9608(3) 0.2850(4) 0.9009(4)
H28_4 H 0.9673 0.2924 0.8734
N19_4 N 0.6822(3) 0.3411(3) 0.7500(4)
N20_4 N 0.7202(3) 0.2771(3) 0.7720(4)
N21_4 N 0.7371(3) 0.3446(3) 0.8081(4)
N23_4 N 0.8335(3) 0.2320(3) 0.8901(4)
N24_4 N 0.6907(3) 0.5035(3) 0.7831(4)
C55_4 C 0.6897(3) 0.2983(3) 0.7471(4)
C56_4 C 0.7424(3) 0.3008(3) 0.8045(4)
C57_4 C 0.7079(3) 0.3630(3) 0.7806(4)
C58_4 C 0.6650(3) 0.2737(3) 0.7108(4)
C59_4 C 0.6338(3) 0.2930(4) 0.6827(4)
H37_4 H 0.6275 0.3231 0.6868
C60_4 C 0.6123(4) 0.2692(3) 0.6494(5)
H38_4 H 0.5918 0.2838 0.6298
C61_4 C 0.6488(4) 0.2064(4) 0.6691(4)
H39_4 H 0.6540 0.1762 0.6644
C62_4 C 0.6727(4) 0.2288(3) 0.7033(5)
H40_4 H 0.6940 0.2142 0.7215
C63_4 C 0.7743(3) 0.2782(3) 0.8339(4)
C64_4 C 0.7803(4) 0.2329(3) 0.8288(5)
H41_4 H 0.7645 0.2173 0.8050
C65_4 C 0.8089(4) 0.2105(4) 0.8581(4)
H42_4 H 0.8112 0.1793 0.8554
C66_4 C 0.8278(4) 0.2746(3) 0.8951(5)
H43_4 H 0.8440 0.2891 0.9193
C67_4 C 0.8000(3) 0.2996(4) 0.8677(4)
H44_4 H 0.7986 0.3307 0.8717
C68_4 C 0.7019(3) 0.4116(3) 0.7811(5)
C69_4 C 0.7297(4) 0.4399(3) 0.8056(5)
H45_4 H 0.7534 0.4281 0.8218
C70_4 C 0.7231(4) 0.4845(3) 0.8064(5)
H46_4 H 0.7421 0.5028 0.8241
C71_4 C 0.6637(4) 0.4760(3) 0.7586(6)
H47_4 H 0.6414 0.4885 0.7399
C72_4 C 0.6677(3) 0.4305(3) 0.7603(5)
H48_4 H 0.6465 0.4122 0.7468
N25_4 N 0.5220(3) 0.6204(3) 0.9699(4)
N26_4 N 0.5389(2) 0.5787(3) 0.9125(3)
N27_4 N 0.5745(3) 0.6429(3) 0.9389(3)
N28_4 N 0.4219(3) 0.5020(3) 0.9422(3)
N29_4 N 0.6456(3) 0.5801(3) 0.8268(3)
C73_4 C 0.5167(3) 0.5874(3) 0.9412(4)
C74_4 C 0.5684(3) 0.6067(3) 0.9138(4)
C75_4 C 0.5496(3) 0.6492(3) 0.9654(4)
C76_4 C 0.4830(3) 0.5587(4) 0.9417(3)
C77_4 C 0.4697(3) 0.5519(3) 0.9798(4)
C78_4 C 0.4400(3) 0.5213(4) 0.9805(4)
C79_4 C 0.4355(3) 0.5076(4) 0.9059(4)
H51_4 H 0.4248 0.4906 0.8804
C80_4 C 0.4642(3) 0.5368(4) 0.9039(4)
H52_4 H 0.4715 0.5422 0.8765
C81_4 C 0.5951(3) 0.5994(4) 0.8828(3)
C82_4 C 0.5854(4) 0.5698(4) 0.8479(4)
H53_4 H 0.5616 0.5541 0.8436
C83_4 C 0.6102(3) 0.5632(5) 0.8195(5)
H54_4 H 0.6015 0.5459 0.7938
C84_4 C 0.6562(4) 0.6062(4) 0.8618(4)
H55_4 H 0.6816 0.6183 0.8672
C85_4 C 0.6329(3) 0.6168(4) 0.8907(4)
H56_4 H 0.6421 0.6354 0.9155
C86_4 C 0.5532(3) 0.6910(3) 0.9918(4)
C87_4 C 0.5808(4) 0.7223(3) 0.9882(5)
H57_4 H 0.5955 0.7195 0.9658
N31_4 N 0.1822(3) 0.5912(3) 0.7517(4)
N32_4 N 0.2375(3) 0.5973(3) 0.8110(4)
N33_4 N 0.2206(3) 0.5270(3) 0.7744(4)
N35_4 N 0.3345(3) 0.4883(3) 0.8954(4)
N36_4 N 0.1225(3) 0.4749(3) 0.6421(4)
C91_4 C 0.2075(3) 0.6141(3) 0.7816(4)
C92_4 C 0.2410(4) 0.5521(3) 0.8074(4)
C93_4 C 0.1905(3) 0.5480(3) 0.7489(4)
C94_4 C 0.2004(3) 0.6621(3) 0.7835(5)
C95_4 C 0.1682(4) 0.6803(3) 0.7565(5)
H61_4 H 0.1491 0.6616 0.7394
C96_4 C 0.1634(4) 0.7252(3) 0.7544(5)
H62_4 H 0.1415 0.7368 0.7343
C97_4 C 0.2187(4) 0.7360(3) 0.8044(5)
H63_4 H 0.2371 0.7554 0.8217
C98_4 C 0.2264(4) 0.6915(3) 0.8080(5)
H64_4 H 0.2492 0.6810 0.8272
C99_4 C 0.2754(3) 0.5306(3) 0.8355(4)
C100_4 C 0.3001(3) 0.5544(4) 0.8687(4)
H65_4 H 0.2976 0.5855 0.8708
C101_4 C 0.3281(4) 0.5319(3) 0.8981(5)
H66_4 H 0.3438 0.5481 0.9215
C102_4 C 0.3102(4) 0.4673(4) 0.8631(5)
H67_4 H 0.3144 0.4365 0.8600
C103_4 C 0.2798(4) 0.4859(3) 0.8341(5)
H68_4 H 0.2623 0.4682 0.8136
C104_4 C 0.1673(3) 0.5236(3) 0.7102(4)
C105_4 C 0.1755(4) 0.4798(3) 0.7038(4)
H69_4 H 0.1964 0.4656 0.7233
C106_4 C 0.1532(3) 0.4566(4) 0.6689(4)
H70_4 H 0.1598 0.4268 0.6640
C107_4 C 0.1133(5) 0.5168(4) 0.6514(5)
H71_4 H 0.0902 0.5290 0.6342
C108_4 C 0.1349(4) 0.5429(4) 0.6838(4)
H72_4 H 0.1280 0.5727 0.6879
N37_4 N 0.0355(3) 0.6716(3) 0.4104(3)
N38_4 N 0.0209(3) 0.6304(3) 0.4704(4)
N39_4 N 0.0727(3) 0.6074(3) 0.4357(3)
N41_4 N 0.0672(3) 0.4906(3) 0.5501(4)
N42_4 N 0.1417(3) 0.6686(4) 0.3236(4)
C109_4 C 0.0136(3) 0.6628(3) 0.4395(4)
C110_4 C 0.0502(3) 0.6026(3) 0.4653(4)
C111_4 C 0.0654(3) 0.6448(3) 0.4115(4)
C117_4 C 0.0566(3) 0.5640(3) 0.4957(4)
C118_4 C 0.0304(3) 0.5546(3) 0.5226(4)
H77_4 H 0.0087 0.5731 0.5229
C119_4 C 0.0373(4) 0.5168(3) 0.5490(5)
H78_4 H 0.0195 0.5097 0.5672
C120_4 C 0.0900(4) 0.4982(4) 0.5209(4)
H79_4 H 0.1100 0.4775 0.5194
C121_4 C 0.0857(4) 0.5342(4) 0.4930(5)
H80_4 H 0.1022 0.5384 0.4727
C122_4 C 0.0916(3) 0.6518(3) 0.3807(3)
C123_4 C 0.1284(3) 0.6333(4) 0.3879(4)
H81_4 H 0.1372 0.6143 0.4124
C124_4 C 0.1519(3) 0.6433(4) 0.3585(4)
H82_4 H 0.1773 0.6309 0.3640
C125_4 C 0.1074(3) 0.6876(4) 0.3174(4)
H83_4 H 0.1000 0.7072 0.2931
C126_4 C 0.0815(3) 0.6801(4) 0.3449(4)
H84_4 H 0.0569 0.6943 0.3391
I21_2 I 0.85107(4) 0.78714(5) 0.51071(5)
I22_4 I 0.89378(5) 0.86416(4) 0.40753(6)
I23_3 I 0.62641(4) 0.41303(4) 0.20072(5)
I24_3 I 0.73416(4) 0.38409(4) 0.29962(6)
Zn11_4 Zn 0.87307(6) 0.79215(6) 0.43762(8)
N40_4 N 0.9175(3) 0.7485(4) 0.4403(3)
C112_4 C 0.9799(3) 0.6916(4) 0.4412(3)
C113_4 C 0.9624(4) 0.7130(4) 0.4025(5)
H73_4 H 0.9717 0.7092 0.3760
C114_4 C 0.9312(3) 0.7400(4) 0.4038(4)
H74_4 H 0.9185 0.7536 0.3769
C115_4 C 0.9357(3) 0.7289(4) 0.4778(4)
H75_2 H 0.9274 0.7356 0.5045
C116_4 C 0.9659(3) 0.6994(4) 0.4793(4)
H76_2 H 0.9770 0.6847 0.5061
N43_4 N 0.6837(3) 0.6581(3) 0.2439(4)
N44_4 N 0.7375(3) 0.6510(3) 0.3030(4)
N45_4 N 0.7210(3) 0.7210(3) 0.2690(3)
N46_3 N 0.6856(3) 0.4948(3) 0.2738(4)
N47_4 N 0.8315(3) 0.7620(3) 0.3895(4)
C127_4 C 0.7069(3) 0.6343(3) 0.2744(4)
C128_4 C 0.7431(4) 0.6946(3) 0.2990(4)
C129_4 C 0.6918(3) 0.7009(3) 0.2424(4)
C130_4 C 0.6990(3) 0.5858(3) 0.2755(5)
C131_4 C 0.6659(4) 0.5684(3) 0.2497(5)
H85_4 H 0.6474 0.5870 0.2316
C132_4 C 0.6600(4) 0.5233(3) 0.2506(5)
H86_4 H 0.6365 0.5118 0.2338
C133_4 C 0.7179(4) 0.5118(3) 0.2981(5)
H87_3 H 0.7364 0.4924 0.3151
C134_4 C 0.7255(4) 0.5566(3) 0.2996(5)
H88_4 H 0.7490 0.5675 0.3171
C135_4 C 0.7725(3) 0.7178(3) 0.3320(4)
C136_4 C 0.7943(3) 0.6956(4) 0.3683(4)
H89_4 H 0.7903 0.6651 0.3733
C137_4 C 0.8221(4) 0.7197(3) 0.3967(5)
H90_4 H 0.8354 0.7058 0.4231
C138_4 C 0.8097(3) 0.7824(4) 0.3552(4)
H91_4 H 0.8138 0.8131 0.3516
C139_4 C 0.7817(3) 0.7618(3) 0.3247(4)
H92_4 H 0.7687 0.7771 0.2990
C140_4 C 0.6683(3) 0.7266(3) 0.2056(3)
C141_4 C 0.6716(4) 0.7720(3) 0.2016(5)
H93_4 H 0.6896 0.7877 0.2234
C142_4 C 0.6492(4) 0.7949(4) 0.1666(4)
H94_4 H 0.6536 0.8256 0.1636
C143_4 C 0.6204(4) 0.7311(3) 0.1401(5)
H95_4 H 0.6027 0.7163 0.1174
C144_4 C 0.6422(4) 0.7050(4) 0.1730(4)
H96_4 H 0.6394 0.6737 0.1731
N18_2 N 0.0609(3) 0.9886(3) 0.5460(4)
C52_4 C 0.0837(4) 0.9948(4) 0.5172(4)
H34_4 H 0.1035 0.9738 0.5158
Zn14_2 Zn 0.07785(6) 0.93865(6) 0.59256(7)
I11_4 I 0.02480(4) 0.92549(4) 0.63609(5)
I12_4 I 0.11359(4) 0.87977(4) 0.55895(5)
I14_4 I 0.39491(5) 0.88423(4) 0.90199(6)
Zn7_4 Zn 0.37294(6) 0.95384(6) 0.93588(8)
N4_4 N 0.4180(3) 0.9974(3) 0.9377(3)
H3_4 H 0.4157 0.9976 0.8735
N10_4 N 0.1182(3) 0.9755(3) 0.6361(4)
N11_4 N 0.3292(3) 0.9836(3) 0.8906(4)
C25_4 C 0.1484(4) 0.9562(4) 0.6634(4)
H15_4 H 0.1540 0.9261 0.6584
C26_4 C 0.1717(4) 0.9781(3) 0.6983(4)
H16_4 H 0.1926 0.9633 0.7172
C28_4 C 0.2795(4) 0.9841(3) 0.8246(5)
H17_4 H 0.2661 0.9688 0.7991
C29_4 C 0.3078(4) 0.9629(4) 0.8556(4)
H18_4 H 0.3123 0.9323 0.8518
I23_4 I 0.62641(4) 0.08697(4) 0.70072(5)
I24_4 I 0.73416(4) 0.11591(4) 0.79962(6)
Zn12_2 Zn 0.67200(6) 0.07143(6) 0.77453(8)
N46_4 N 0.6856(3) 0.0052(3) 0.7738(4)
H87_4 H 0.7364 0.0076 0.8151
N49_2 N 0.6387(3) 0.0804(3) 0.8235(3)
I9_4 I 0.13783(4) 0.34002(4) 0.70822(5)
I10_4 I 0.24259(4) 0.36042(4) 0.81669(6)
Zn5_4 Zn 0.17943(6) 0.32010(6) 0.78391(8)
N1_4 N 0.5193(3) 0.1169(3) 0.9705(4)
N2_4 N 0.5350(3) 0.0769(3) 0.9106(3)
N3_4 N 0.5720(3) 0.1402(3) 0.9386(3)
C1_4 C 0.5134(3) 0.0842(3) 0.9406(4)
C2_4 C 0.5637(3) 0.1062(3) 0.9106(4)
C3_4 C 0.5473(3) 0.1450(3) 0.9658(4)
C4_4 C 0.4785(3) 0.0564(4) 0.9389(3)
C5_4 C 0.4667(3) 0.0455(4) 0.9776(4)
C6_4 C 0.4363(3) 0.0168(4) 0.9758(4)
C7_4 C 0.4296(3) 0.0095(4) 0.9007(4)
C8_4 C 0.4597(3) 0.0374(4) 0.8992(4)
H4_4 H 0.4674 0.0437 0.8722
C9_4 C 0.5903(3) 0.0953(4) 0.8807(3)
C10_4 C 0.5780(4) 0.0668(4) 0.8446(4)
H5_4 H 0.5536 0.0522 0.8394
C11_4 C 0.6040(3) 0.0613(4) 0.8169(4)
H6_4 H 0.5965 0.0428 0.7918
C12_4 C 0.6499(4) 0.1062(4) 0.8591(4)
H7_4 H 0.6755 0.1179 0.8647
C13_4 C 0.6260(3) 0.1167(4) 0.8882(4)
H8_4 H 0.6336 0.1373 0.9116
C14_4 C 0.5534(3) 0.1844(3) 0.9955(4)
C15_4 C 0.5810(4) 0.2154(3) 0.9920(5)
H9_4 H 0.5962 0.2129 0.9701
N7_4 N 0.1806(3) 0.0892(3) 0.7476(4)
N8_4 N 0.2181(3) 0.0261(3) 0.7689(3)
N9_4 N 0.2356(3) 0.0948(3) 0.8059(4)
N12_4 N 0.1906(3) 0.2531(3) 0.7827(4)
C19_4 C 0.1882(3) 0.0467(3) 0.7416(4)
C20_4 C 0.2389(3) 0.0513(3) 0.8009(4)
C21_4 C 0.2061(3) 0.1133(3) 0.7769(4)
C22_4 C 0.1639(3) 0.0220(3) 0.7052(4)
C23_4 C 0.1334(3) 0.0431(4) 0.6768(4)
H13_4 H 0.1274 0.0732 0.6809
C24_4 C 0.1125(4) 0.0187(3) 0.6429(5)
H14_4 H 0.0924 0.0333 0.6227
C27_4 C 0.2711(3) 0.0284(3) 0.8319(4)
C30_4 C 0.3179(4) 0.0249(3) 0.8976(5)
H19_4 H 0.3287 0.0376 0.9255
C31_4 C 0.2921(4) 0.0509(4) 0.8682(4)
H20_4 H 0.2891 0.0817 0.8726
C32_4 C 0.1994(3) 0.1616(3) 0.7794(5)
C33_4 C 0.2294(4) 0.1887(3) 0.7997(6)
H21_4 H 0.2541 0.1763 0.8118
C34_4 C 0.2239(4) 0.2337(3) 0.8027(6)
H22_4 H 0.2442 0.2513 0.8192
C35_4 C 0.1633(4) 0.2268(3) 0.7588(5)
H23_4 H 0.1405 0.2404 0.7425
C36_4 C 0.1662(3) 0.1814(3) 0.7564(5)
H24_4 H 0.1458 0.1643 0.7394
N13_4 N 0.0202(3) 0.3668(3) 0.9719(4)
N14_4 N 0.0378(3) 0.3257(3) 0.9138(4)
N15_4 N 0.0734(3) 0.3900(3) 0.9406(3)
N17_4 N 0.1438(3) 0.3289(3) 0.8292(4)
C37_4 C 0.0130(3) 0.3349(3) 0.9412(4)
C38_4 C 0.0662(3) 0.3543(3) 0.9143(4)
C39_4 C 0.0482(3) 0.3954(3) 0.9669(4)
C45_4 C 0.0935(3) 0.3465(4) 0.8845(3)
C46_4 C 0.0841(3) 0.3160(4) 0.8501(4)
H29_4 H 0.0599 0.3008 0.8450
C47_4 C 0.1102(3) 0.3085(4) 0.8237(4)
H30_4 H 0.1037 0.2875 0.8005
C48_4 C 0.1537(3) 0.3575(4) 0.8632(3)
H31_4 H 0.1775 0.3732 0.8670
C49_4 C 0.1298(3) 0.3644(4) 0.8926(4)
H32_4 H 0.1386 0.3816 0.9185
C50_4 C 0.0515(3) 0.4375(3) 0.9925(4)
C51_4 C 0.0791(4) 0.4690(3) 0.9891(4)
H33_4 H 0.0948 0.4660 0.9677
I21_3 I 0.85107(4) 0.71286(5) 0.01071(5)
H75_3 H 0.9274 0.7644 0.0045
H76_3 H 0.9770 0.8153 0.0061
I13_4 I 0.35309(4) 0.95556(4) 0.01015(5)
I21_4 I 0.14893(4) 0.28714(5) 0.98929(5)
H75_4 H 0.0726 0.2356 0.9955
H76_4 H 0.0230 0.1847 0.9939
loop_
_geom_bond_atom_site_label_1
_geom_bond_atom_site_label_2
_geom_bond_site_symmetry_1
_geom_bond_site_symmetry_2
I21 Zn11 1_555 1_555
I22 Zn11 1_555 1_555
I23 Zn12 1_555 1_555
I24 Zn12 1_555 1_555
Zn11 N40 1_555 1_555
Zn12 N46 1_555 1_555
N40 C114 1_555 1_555
C112 C113 1_555 1_555
C113 H73 1_555 1_555
C114 C113 1_555 1_555
H74 C114 1_555 1_555
C115 N40 1_555 1_555
H75 C115 1_555 1_555
C116 C112 1_555 1_555
H76 C116 1_555 1_555
N43 C127 1_555 1_555
N44 C127 1_555 1_555
N45 C128 1_555 1_555
N46 C132 1_555 1_555
N47 Zn11 1_555 1_555
N48 C142 1_555 1_555
C127 C130 1_555 1_555
C128 N44 1_555 1_555
C129 N43 1_555 1_555
C130 C131 1_555 1_555
C131 H85 1_555 1_555
C132 C131 1_555 1_555
H86 C132 1_555 1_555
C133 N46 1_555 1_555
H87 C133 1_555 1_555
C134 C130 1_555 1_555
H88 C134 1_555 1_555
C135 C128 1_555 1_555
C136 C135 1_555 1_555
H89 C136 1_555 1_555
C137 N47 1_555 1_555
H90 C137 1_555 1_555
C138 N47 1_555 1_555
H91 C138 1_555 1_555
C139 C135 1_555 1_555
H92 C139 1_555 1_555
C140 C129 1_555 1_555
C141 C140 1_555 1_555
H93 C141 1_555 1_555
C142 C141 1_555 1_555
H94 C142 1_555 1_555
C143 N48 1_555 1_555
H95 C143 1_555 1_555
C144 C140 1_555 1_555
H96 C144 1_555 1_555
Zn13 N48 1_555 1_555
N49 Zn12 1_555 1_555
C115 C116 1_555 1_555
N45 C129 1_555 1_555
C133 C134 1_555 1_555
C136 C137 1_555 1_555
C138 C139 1_555 1_555
C143 C144 1_555 1_555
I2 Zn1 1_555 1_555
I5 Zn3 1_555 1_555
I6 Zn3 1_555 1_555
I7 Zn4 1_555 1_555
I17 Zn9 1_555 1_555
I18 Zn9 1_555 1_555
I19 Zn10 1_555 1_555
I20 Zn10 1_555 1_555
Zn1 N28 1_555 1_555
Zn3 N24 1_555 1_555
Zn4 N16 1_555 1_555
Zn9 N36 1_555 1_555
Zn10 N42 1_555 1_555
N16 C42 1_555 1_555
C40 C41 1_555 1_555
C42 C41 1_555 1_555
C43 N16 1_555 1_555
H27 C43 1_555 1_555
C44 C40 1_555 1_555
H28 C44 1_555 1_555
N19 C55 1_555 1_555
N20 C55 1_555 1_555
N21 C56 1_555 1_555
N22 C60 1_555 1_555
N23 Zn4 1_555 1_555
N24 C70 1_555 1_555
C55 C58 1_555 1_555
C56 N20 1_555 1_555
C57 N19 1_555 1_555
C58 C59 1_555 1_555
C59 H37 1_555 1_555
C60 C59 1_555 1_555
H38 C60 1_555 1_555
C61 N22 1_555 1_555
H39 C61 1_555 1_555
C62 C58 1_555 1_555
H40 C62 1_555 1_555
C63 C56 1_555 1_555
C64 C63 1_555 1_555
H41 C64 1_555 1_555
C65 N23 1_555 1_555
H42 C65 1_555 1_555
C66 N23 1_555 1_555
H43 C66 1_555 1_555
C67 C63 1_555 1_555
H44 C67 1_555 1_555
C68 C57 1_555 1_555
C69 C68 1_555 1_555
H45 C69 1_555 1_555
C70 C69 1_555 1_555
H46 C70 1_555 1_555
C71 N24 1_555 1_555
H47 C71 1_555 1_555
C72 C68 1_555 1_555
H48 C72 1_555 1_555
N25 C73 1_555 1_555
N26 C73 1_555 1_555
N27 C74 1_555 1_555
N28 C78 1_555 1_555
N29 Zn3 1_555 1_555
C73 C76 1_555 1_555
C74 N26 1_555 1_555
C75 N25 1_555 1_555
C76 C77 1_555 1_555
C78 C77 1_555 1_555
C79 N28 1_555 1_555
H51 C79 1_555 1_555
C80 C76 1_555 1_555
H52 C80 1_555 1_555
C81 C74 1_555 1_555
C82 C81 1_555 1_555
H53 C82 1_555 1_555
C83 N29 1_555 1_555
H54 C83 1_555 1_555
C84 N29 1_555 1_555
H55 C84 1_555 1_555
C85 C81 1_555 1_555
H56 C85 1_555 1_555
C86 C75 1_555 1_555
C87 C86 1_555 1_555
H57 C87 1_555 1_555
N31 C91 1_555 1_555
N32 C91 1_555 1_555
N33 C92 1_555 1_555
N34 C96 1_555 1_555
N35 Zn1 1_555 1_555
N36 C106 1_555 1_555
C91 C94 1_555 1_555
C92 N32 1_555 1_555
C93 N31 1_555 1_555
C94 C95 1_555 1_555
C95 H61 1_555 1_555
C96 C95 1_555 1_555
H62 C96 1_555 1_555
C97 N34 1_555 1_555
H63 C97 1_555 1_555
C98 C94 1_555 1_555
H64 C98 1_555 1_555
C99 C92 1_555 1_555
C100 C99 1_555 1_555
H65 C100 1_555 1_555
C101 N35 1_555 1_555
H66 C101 1_555 1_555
C102 N35 1_555 1_555
H67 C102 1_555 1_555
C103 C99 1_555 1_555
H68 C103 1_555 1_555
C104 C93 1_555 1_555
C105 C104 1_555 1_555
H69 C105 1_555 1_555
C106 C105 1_555 1_555
H70 C106 1_555 1_555
C107 N36 1_555 1_555
H71 C107 1_555 1_555
C108 C104 1_555 1_555
H72 C108 1_555 1_555
N37 C109 1_555 1_555
N38 C109 1_555 1_555
N39 C110 1_555 1_555
N41 Zn9 1_555 1_555
N42 C124 1_555 1_555
C110 N38 1_555 1_555
C111 N37 1_555 1_555
C117 C110 1_555 1_555
C118 C117 1_555 1_555
H77 C118 1_555 1_555
C119 N41 1_555 1_555
H78 C119 1_555 1_555
C120 N41 1_555 1_555
H79 C120 1_555 1_555
C121 C117 1_555 1_555
H80 C121 1_555 1_555
C122 C111 1_555 1_555
C123 C122 1_555 1_555
H81 C123 1_555 1_555
C124 C123 1_555 1_555
H82 C124 1_555 1_555
C125 N42 1_555 1_555
H83 C125 1_555 1_555
C126 C122 1_555 1_555
H84 C126 1_555 1_555
Zn15 N22 1_555 1_555
Zn16 N34 1_555 1_555
N52 Zn10 1_555 1_555
C43 C44 1_555 1_555
N21 C57 1_555 1_555
C61 C62 1_555 1_555
C64 C65 1_555 1_555
C66 C67 1_555 1_555
C71 C72 1_555 1_555
N27 C75 1_555 1_555
C79 C80 1_555 1_555
C82 C83 1_555 1_555
C84 C85 1_555 1_555
N33 C93 1_555 1_555
C97 C98 1_555 1_555
C100 C101 1_555 1_555
C102 C103 1_555 1_555
C107 C108 1_555 1_555
N39 C111 1_555 1_555
C118 C119 1_555 1_555
C120 C121 1_555 1_555
C125 C126 1_555 1_555
I3 Zn13 1_555 1_555
I4 Zn13 1_555 1_555
Zn13 N30 1_555 1_555
N30 C88 1_555 1_555
H58 C88 1_555 1_555
C89 N30 1_555 1_555
H59 C89 1_555 1_555
H60 C90 1_555 1_555
C89 C90 1_555 1_555
I15 Zn8 1_555 1_555
I16 Zn8 1_555 1_555
Zn8 N6 1_555 1_555
N6 C16 1_555 1_555
H10 C16 1_555 1_555
C17 N6 1_555 1_555
H11 C17 1_555 1_555
H12 C18 1_555 1_555
N18 C52 1_555 1_555
H34 C52 1_555 1_555
C53 N18 1_555 1_555
H35 C53 1_555 1_555
H36 C54 1_555 1_555
Zn14 N18 1_555 1_555
N51 Zn8 1_555 1_555
C17 C18 1_555 1_555
C53 C54 1_555 1_555
I22_2 Zn11_2 1_555 1_555
Zn11_2 N40_2 1_555 1_555
N40_2 C114_2 1_555 1_555
C112_2 C113_2 1_555 1_555
C113_2 H73_2 1_555 1_555
C114_2 C113_2 1_555 1_555
H74_2 C114_2 1_555 1_555
C115_2 N40_2 1_555 1_555
C116_2 C112_2 1_555 1_555
N43_2 C127_2 1_555 1_555
N44_2 C127_2 1_555 1_555
N45_2 C128_2 1_555 1_555
N47_2 Zn11_2 1_555 1_555
N48_2 C142_2 1_555 1_555
C127_2 C130_2 1_555 1_555
C128_2 N44_2 1_555 1_555
C129_2 N43_2 1_555 1_555
C130_2 C131_2 1_555 1_555
C131_2 H85_2 1_555 1_555
C132_2 C131_2 1_555 1_555
H86_2 C132_2 1_555 1_555
C134_2 C130_2 1_555 1_555
H88_2 C134_2 1_555 1_555
C135_2 C128_2 1_555 1_555
C136_2 C135_2 1_555 1_555
H89_2 C136_2 1_555 1_555
C137_2 N47_2 1_555 1_555
H90_2 C137_2 1_555 1_555
C138_2 N47_2 1_555 1_555
H91_2 C138_2 1_555 1_555
C139_2 C135_2 1_555 1_555
H92_2 C139_2 1_555 1_555
C140_2 C129_2 1_555 1_555
C141_2 C140_2 1_555 1_555
H93_2 C141_2 1_555 1_555
C142_2 C141_2 1_555 1_555
H94_2 C142_2 1_555 1_555
C143_2 N48_2 1_555 1_555
H95_2 C143_2 1_555 1_555
C144_2 C140_2 1_555 1_555
H96_2 C144_2 1_555 1_555
Zn13_2 N48_2 1_555 1_555
C115_2 C116_2 1_555 1_555
N45_2 C129_2 1_555 1_555
C133_2 C134_2 1_555 1_555
C136_2 C137_2 1_555 1_555
C138_2 C139_2 1_555 1_555
C143_2 C144_2 1_555 1_555
I19_2 Zn16 1_555 1_555
I20_2 Zn16 1_555 1_555
Zn16 N42_2 1_555 1_555
N37_2 C109_2 1_555 1_555
N38_2 C109_2 1_555 1_555
N39_2 C110_2 1_555 1_555
N42_2 C124_2 1_555 1_555
C110_2 N38_2 1_555 1_555
C111_2 N37_2 1_555 1_555
C117_2 C110_2 1_555 1_555
C121_2 C117_2 1_555 1_555
H80_2 C121_2 1_555 1_555
C122_2 C111_2 1_555 1_555
C123_2 C122_2 1_555 1_555
H81_2 C123_2 1_555 1_555
C124_2 C123_2 1_555 1_555
H82_2 C124_2 1_555 1_555
C125_2 N42_2 1_555 1_555
H83_2 C125_2 1_555 1_555
C126_2 C122_2 1_555 1_555
H84_2 C126_2 1_555 1_555
N39_2 C111_2 1_555 1_555
C125_2 C126_2 1_555 1_555
I3_2 Zn13_2 1_555 1_555
I4_2 Zn13_2 1_555 1_555
I5_2 Zn3_2 1_555 1_555
I6_2 Zn3_2 1_555 1_555
Zn13_2 N30_2 1_555 1_555
Zn3_2 N24_2 1_555 1_555
N25_2 C73_2 1_555 1_555
N26_2 C73_2 1_555 1_555
N27_2 C74_2 1_555 1_555
N28_2 C78_2 1_555 1_555
N29_2 Zn3_2 1_555 1_555
N30_2 C88_2 1_555 1_555
C73_2 C76_2 1_555 1_555
C74_2 N26_2 1_555 1_555
C75_2 N25_2 1_555 1_555
C76_2 C77_2 1_555 1_555
C77_2 H49_2 1_555 1_555
C78_2 C77_2 1_555 1_555
H50_2 C78_2 1_555 1_555
C79_2 N28_2 1_555 1_555
C80_2 C76_2 1_555 1_555
H52_2 C80_2 1_555 1_555
C81_2 C74_2 1_555 1_555
C82_2 C81_2 1_555 1_555
H53_2 C82_2 1_555 1_555
C83_2 N29_2 1_555 1_555
H54_2 C83_2 1_555 1_555
C84_2 N29_2 1_555 1_555
H55_2 C84_2 1_555 1_555
C85_2 C81_2 1_555 1_555
H56_2 C85_2 1_555 1_555
C86_2 C75_2 1_555 1_555
C87_2 C86_2 1_555 1_555
H57_2 C87_2 1_555 1_555
C88_2 C87_2 1_555 1_555
H58_2 C88_2 1_555 1_555
C89_2 N30_2 1_555 1_555
H59_2 C89_2 1_555 1_555
C90_2 C86_2 1_555 1_555
H60_2 C90_2 1_555 1_555
N31_2 C91_2 1_555 1_555
N32_2 C91_2 1_555 1_555
N33_2 C92_2 1_555 1_555
N52 C96_2 1_555 1_555
C91_2 C94_2 1_555 1_555
C92_2 N32_2 1_555 1_555
C93_2 N31_2 1_555 1_555
C94_2 C95_2 1_555 1_555
C95_2 H61_2 1_555 1_555
C96_2 C95_2 1_555 1_555
H62_2 C96_2 1_555 1_555
C97_2 N52 1_555 1_555
H63_2 C97_2 1_555 1_555
C98_2 C94_2 1_555 1_555
H64_2 C98_2 1_555 1_555
C99_2 C92_2 1_555 1_555
C100_2 C99_2 1_555 1_555
H65_2 C100_2 1_555 1_555
H66_2 C101_2 1_555 1_555
C104_2 C93_2 1_555 1_555
H71_2 C107_2 1_555 1_555
C108_2 C104_2 1_555 1_555
H72_2 C108_2 1_555 1_555
H77_2 C118_2 1_555 1_555
H78_2 C119_2 1_555 1_555
N27_2 C75_2 1_555 1_555
C79_2 C80_2 1_555 1_555
C82_2 C83_2 1_555 1_555
C84_2 C85_2 1_555 1_555
C89_2 C90_2 1_555 1_555
N33_2 C93_2 1_555 1_555
C97_2 C98_2 1_555 1_555
C100_2 C101_2 1_555 1_555
C107_2 C108_2 1_555 1_555
C118_2 C119_2 1_555 1_555
I1_2 Zn1_2 1_555 1_555
I2_2 Zn1_2 1_555 1_555
I7_2 Zn4_2 1_555 1_555
I8_2 Zn4_2 1_555 1_555
I17_2 Zn9_2 1_555 1_555
I18_2 Zn9_2 1_555 1_555
Zn4_2 N16_2 1_555 1_555
Zn9_2 N36_2 1_555 1_555
N16_2 C42_2 1_555 1_555
C40_2 C41_2 1_555 1_555
C41_2 H25_2 1_555 1_555
C42_2 C41_2 1_555 1_555
H26_2 C42_2 1_555 1_555
C43_2 N16_2 1_555 1_555
H27_2 C43_2 1_555 1_555
C44_2 C40_2 1_555 1_555
H28_2 C44_2 1_555 1_555
N19_2 C55_2 1_555 1_555
N20_2 C55_2 1_555 1_555
N21_2 C56_2 1_555 1_555
N51 C60_2 1_555 1_555
N23_2 Zn4_2 1_555 1_555
C55_2 C58_2 1_555 1_555
C56_2 N20_2 1_555 1_555
C57_2 N19_2 1_555 1_555
C58_2 C59_2 1_555 1_555
C59_2 H37_2 1_555 1_555
C60_2 C59_2 1_555 1_555
H38_2 C60_2 1_555 1_555
C61_2 N51 1_555 1_555
H39_2 C61_2 1_555 1_555
C62_2 C58_2 1_555 1_555
H40_2 C62_2 1_555 1_555
C63_2 C56_2 1_555 1_555
C64_2 C63_2 1_555 1_555
H41_2 C64_2 1_555 1_555
C65_2 N23_2 1_555 1_555
H42_2 C65_2 1_555 1_555
C66_2 N23_2 1_555 1_555
H43_2 C66_2 1_555 1_555
C67_2 C63_2 1_555 1_555
H44_2 C67_2 1_555 1_555
C68_2 C57_2 1_555 1_555
C69_2 C68_2 1_555 1_555
H45_2 C69_2 1_555 1_555
C70_2 C69_2 1_555 1_555
H47_2 C71_2 1_555 1_555
C72_2 C68_2 1_555 1_555
H48_2 C72_2 1_555 1_555
N35_2 Zn1_2 1_555 1_555
N36_2 C106_2 1_555 1_555
C102_2 N35_2 1_555 1_555
H67_2 C102_2 1_555 1_555
H68_2 C103_2 1_555 1_555
H69_2 C105_2 1_555 1_555
C106_2 C105_2 1_555 1_555
H70_2 C106_2 1_555 1_555
N41_2 Zn9_2 1_555 1_555
C120_2 N41_2 1_555 1_555
H79_2 C120_2 1_555 1_555
C43_2 C44_2 1_555 1_555
N21_2 C57_2 1_555 1_555
C61_2 C62_2 1_555 1_555
C64_2 C65_2 1_555 1_555
C66_2 C67_2 1_555 1_555
C71_2 C72_2 1_555 1_555
C102_2 C103_2 1_555 1_555
I9 Zn5 1_555 1_555
I10 Zn5 1_555 1_555
I11 Zn14 1_555 1_555
I12 Zn14 1_555 1_555
I13 Zn7 1_555 1_555
I14 Zn7 1_555 1_555
I15_2 Zn15 1_555 1_555
I16_2 Zn15 1_555 1_555
Zn5 N12 1_555 1_555
Zn14 N10 1_555 1_555
Zn7 N4 1_555 1_555
Zn15 N6_2 1_555 1_555
N1 C1 1_555 1_555
N2 C1 1_555 1_555
N3 C2 1_555 1_555
N4 C6 1_555 1_555
N49 C11 1_555 1_555
N6_2 C16_2 1_555 1_555
C1 C4 1_555 1_555
C2 N2 1_555 1_555
C3 N1 1_555 1_555
C4 C5 1_555 1_555
C5 H1_2 1_555 1_555
C6 C5 1_555 1_555
H2_2 C6 1_555 1_555
C7 N4 1_555 1_555
H3 C7 1_555 1_555
C8 C4 1_555 1_555
H4 C8 1_555 1_555
C9 C2 1_555 1_555
C10 C9 1_555 1_555
H5 C10 1_555 1_555
C11 C10 1_555 1_555
H6 C11 1_555 1_555
C12 N49 1_555 1_555
H7 C12 1_555 1_555
C13 C9 1_555 1_555
H8 C13 1_555 1_555
C14 C3 1_555 1_555
C15 C14 1_555 1_555
H9 C15 1_555 1_555
C16_2 C15 1_555 1_555
H10_2 C16_2 1_555 1_555
C17_2 N6_2 1_555 1_555
H11_2 C17_2 1_555 1_555
C18_2 C14 1_555 1_555
H12_2 C18_2 1_555 1_555
N7 C19 1_555 1_555
N8 C19 1_555 1_555
N9 C20 1_555 1_555
N10 C24 1_555 1_555
N11 Zn7 1_555 1_555
N12 C34 1_555 1_555
C19 C22 1_555 1_555
C20 N8 1_555 1_555
C21 N7 1_555 1_555
C22 C23 1_555 1_555
C23 H13 1_555 1_555
C24 C23 1_555 1_555
H14 C24 1_555 1_555
C25 N10 1_555 1_555
H15 C25 1_555 1_555
C26 C22 1_555 1_555
H16 C26 1_555 1_555
C27 C20 1_555 1_555
C28 C27 1_555 1_555
H17 C28 1_555 1_555
C29 N11 1_555 1_555
H18 C29 1_555 1_555
C30 N11 1_555 1_555
H19 C30 1_555 1_555
C31 C27 1_555 1_555
H20 C31 1_555 1_555
C32 C21 1_555 1_555
C33 C32 1_555 1_555
H21 C33 1_555 1_555
C34 C33 1_555 1_555
H22 C34 1_555 1_555
C35 N12 1_555 1_555
H23 C35 1_555 1_555
C36 C32 1_555 1_555
H24 C36 1_555 1_555
N13 C37 1_555 1_555
N14 C37 1_555 1_555
N15 C38 1_555 1_555
N17 Zn5 1_555 1_555
C38 N14 1_555 1_555
C39 N13 1_555 1_555
C45 C38 1_555 1_555
C46 C45 1_555 1_555
H29 C46 1_555 1_555
C47 N17 1_555 1_555
H30 C47 1_555 1_555
C48 N17 1_555 1_555
H31 C48 1_555 1_555
C49 C45 1_555 1_555
H32 C49 1_555 1_555
C50 C39 1_555 1_555
C51 C50 1_555 1_555
H33 C51 1_555 1_555
H35_2 C53_2 1_555 1_555
C54_2 C50 1_555 1_555
H36_2 C54_2 1_555 1_555
N3 C3 1_555 1_555
C7 C8 1_555 1_555
C12 C13 1_555 1_555
C17_2 C18_2 1_555 1_555
N9 C21 1_555 1_555
C25 C26 1_555 1_555
C28 C29 1_555 1_555
C30 C31 1_555 1_555
C35 C36 1_555 1_555
N15 C39 1_555 1_555
C46 C47 1_555 1_555
C48 C49 1_555 1_555
C53_2 C54_2 1_555 1_555
I11_2 Zn6 1_555 1_555
I12_2 Zn6 1_555 1_555
I14_2 Zn7_2 1_555 1_555
Zn6 N10_2 1_555 1_555
Zn7_2 N4_2 1_555 1_555
N11_2 Zn7_2 1_555 1_555
C25_2 N10_2 1_555 1_555
H15_2 C25_2 1_555 1_555
H16_2 C26_2 1_555 1_555
H17_2 C28_2 1_555 1_555
C29_2 N11_2 1_555 1_555
H18_2 C29_2 1_555 1_555
N50 Zn6 1_555 1_555
C25_2 C26_2 1_555 1_555
C28_2 C29_2 1_555 1_555
N50 C52_2 1_555 1_555
H34_2 C52_2 1_555 1_555
I9_2 Zn5_2 1_555 1_555
I10_2 Zn5_2 1_555 1_555
Zn5_2 N12_2 1_555 1_555
N1_2 C1_2 1_555 1_555
N2_2 C1_2 1_555 1_555
N3_2 C2_2 1_555 1_555
N5 C11_2 1_555 1_555
C1_2 C4_2 1_555 1_555
C2_2 N2_2 1_555 1_555
C3_2 N1_2 1_555 1_555
C4_2 C5_2 1_555 1_555
C6_2 C5_2 1_555 1_555
C8_2 C4_2 1_555 1_555
H4_2 C8_2 1_555 1_555
C9_2 C2_2 1_555 1_555
C10_2 C9_2 1_555 1_555
H5_2 C10_2 1_555 1_555
C11_2 C10_2 1_555 1_555
H6_2 C11_2 1_555 1_555
C12_2 N5 1_555 1_555
H7_2 C12_2 1_555 1_555
C13_2 C9_2 1_555 1_555
H8_2 C13_2 1_555 1_555
C14_2 C3_2 1_555 1_555
C15_2 C14_2 1_555 1_555
H9_2 C15_2 1_555 1_555
N7_2 C19_2 1_555 1_555
N8_2 C19_2 1_555 1_555
N9_2 C20_2 1_555 1_555
N12_2 C34_2 1_555 1_555
C19_2 C22_2 1_555 1_555
C20_2 N8_2 1_555 1_555
C21_2 N7_2 1_555 1_555
C22_2 C23_2 1_555 1_555
C23_2 H13_2 1_555 1_555
C24_2 C23_2 1_555 1_555
H14_2 C24_2 1_555 1_555
C27_2 C20_2 1_555 1_555
H19_2 C30_2 1_555 1_555
C31_2 C27_2 1_555 1_555
H20_2 C31_2 1_555 1_555
C32_2 C21_2 1_555 1_555
C33_2 C32_2 1_555 1_555
H21_2 C33_2 1_555 1_555
C34_2 C33_2 1_555 1_555
H22_2 C34_2 1_555 1_555
C35_2 N12_2 1_555 1_555
H23_2 C35_2 1_555 1_555
C36_2 C32_2 1_555 1_555
H24_2 C36_2 1_555 1_555
N13_2 C37_2 1_555 1_555
N14_2 C37_2 1_555 1_555
N15_2 C38_2 1_555 1_555
N17_2 Zn5_2 1_555 1_555
C38_2 N14_2 1_555 1_555
C39_2 N13_2 1_555 1_555
C45_2 C38_2 1_555 1_555
C46_2 C45_2 1_555 1_555
H29_2 C46_2 1_555 1_555
C47_2 N17_2 1_555 1_555
H30_2 C47_2 1_555 1_555
C48_2 N17_2 1_555 1_555
H31_2 C48_2 1_555 1_555
C49_2 C45_2 1_555 1_555
H32_2 C49_2 1_555 1_555
C50_2 C39_2 1_555 1_555
C51_2 C50_2 1_555 1_555
H33_2 C51_2 1_555 1_555
Zn17 N5 1_555 1_555
N3_2 C3_2 1_555 1_555
C7_2 C8_2 1_555 1_555
C12_2 C13_2 1_555 1_555
N9_2 C21_2 1_555 1_555
C30_2 C31_2 1_555 1_555
C35_2 C36_2 1_555 1_555
N15_2 C39_2 1_555 1_555
C46_2 C47_2 1_555 1_555
C48_2 C49_2 1_555 1_555
I23_2 Zn17 1_555 1_555
I24_2 Zn17 1_555 1_555
Zn17 N46_2 1_555 1_555
I9_3 Zn5_3 1_555 1_555
I10_3 Zn5_3 1_555 1_555
I11_3 Zn6_2 1_555 1_555
I12_3 Zn6_2 1_555 1_555
I13_3 Zn7_3 1_555 1_555
I14_3 Zn7_3 1_555 1_555
I15_3 Zn8_2 1_555 1_555
I16_3 Zn8_2 1_555 1_555
Zn5_3 N12_3 1_555 1_555
Zn6_2 N10_3 1_555 1_555
Zn7_3 N4_3 1_555 1_555
Zn8_2 N6_3 1_555 1_555
N1_3 C1_3 1_555 1_555
N2_3 C1_3 1_555 1_555
N3_3 C2_3 1_555 1_555
N4_3 C6_3 1_555 1_555
N5_2 C11_3 1_555 1_555
N6_3 C16_3 1_555 1_555
C1_3 C4_3 1_555 1_555
C2_3 N2_3 1_555 1_555
C3_3 N1_3 1_555 1_555
C4_3 C5_3 1_555 1_555
C5_3 H1_3 1_555 1_555
C6_3 C5_3 1_555 1_555
H2_3 C6_3 1_555 1_555
C7_3 N4_3 1_555 1_555
H3_3 C7_3 1_555 1_555
C8_3 C4_3 1_555 1_555
H4_3 C8_3 1_555 1_555
C9_3 C2_3 1_555 1_555
C10_3 C9_3 1_555 1_555
H5_3 C10_3 1_555 1_555
C11_3 C10_3 1_555 1_555
H6_3 C11_3 1_555 1_555
C12_3 N5_2 1_555 1_555
H7_3 C12_3 1_555 1_555
C13_3 C9_3 1_555 1_555
H8_3 C13_3 1_555 1_555
C14_3 C3_3 1_555 1_555
C15_3 C14_3 1_555 1_555
H9_3 C15_3 1_555 1_555
C16_3 C15_3 1_555 1_555
H10_3 C16_3 1_555 1_555
C17_3 N6_3 1_555 1_555
H11_3 C17_3 1_555 1_555
C18_3 C14_3 1_555 1_555
H12_3 C18_3 1_555 1_555
N7_3 C19_3 1_555 1_555
N8_3 C19_3 1_555 1_555
N9_3 C20_3 1_555 1_555
N10_3 C24_3 1_555 1_555
N11_3 Zn7_3 1_555 1_555
N12_3 C34_3 1_555 1_555
C19_3 C22_3 1_555 1_555
C20_3 N8_3 1_555 1_555
C21_3 N7_3 1_555 1_555
C22_3 C23_3 1_555 1_555
C23_3 H13_3 1_555 1_555
C24_3 C23_3 1_555 1_555
H14_3 C24_3 1_555 1_555
C25_3 N10_3 1_555 1_555
H15_3 C25_3 1_555 1_555
C26_3 C22_3 1_555 1_555
H16_3 C26_3 1_555 1_555
C27_3 C20_3 1_555 1_555
C28_3 C27_3 1_555 1_555
H17_3 C28_3 1_555 1_555
C29_3 N11_3 1_555 1_555
H18_3 C29_3 1_555 1_555
C30_3 N11_3 1_555 1_555
H19_3 C30_3 1_555 1_555
C31_3 C27_3 1_555 1_555
H20_3 C31_3 1_555 1_555
C32_3 C21_3 1_555 1_555
C33_3 C32_3 1_555 1_555
H21_3 C33_3 1_555 1_555
C34_3 C33_3 1_555 1_555
H22_3 C34_3 1_555 1_555
C35_3 N12_3 1_555 1_555
H23_3 C35_3 1_555 1_555
C36_3 C32_3 1_555 1_555
H24_3 C36_3 1_555 1_555
N13_3 C37_3 1_555 1_555
N14_3 C37_3 1_555 1_555
N15_3 C38_3 1_555 1_555
N17_3 Zn5_3 1_555 1_555
C38_3 N14_3 1_555 1_555
C39_3 N13_3 1_555 1_555
C45_3 C38_3 1_555 1_555
C46_3 C45_3 1_555 1_555
H29_3 C46_3 1_555 1_555
C47_3 N17_3 1_555 1_555
H30_3 C47_3 1_555 1_555
C48_3 N17_3 1_555 1_555
H31_3 C48_3 1_555 1_555
C49_3 C45_3 1_555 1_555
H32_3 C49_3 1_555 1_555
C50_3 C39_3 1_555 1_555
C51_3 C50_3 1_555 1_555
H33_3 C51_3 1_555 1_555
H35_3 C53_3 1_555 1_555
C54_3 C50_3 1_555 1_555
H36_3 C54_3 1_555 1_555
Zn17_2 N5_2 1_555 1_555
N50_2 Zn6_2 1_555 1_555
N51_2 Zn8_2 1_555 1_555
N3_3 C3_3 1_555 1_555
C7_3 C8_3 1_555 1_555
C12_3 C13_3 1_555 1_555
C17_3 C18_3 1_555 1_555
N9_3 C21_3 1_555 1_555
C25_3 C26_3 1_555 1_555
C28_3 C29_3 1_555 1_555
C30_3 C31_3 1_555 1_555
C35_3 C36_3 1_555 1_555
N15_3 C39_3 1_555 1_555
C46_3 C47_3 1_555 1_555
C48_3 C49_3 1_555 1_555
C53_3 C54_3 1_555 1_555
I1_3 Zn1_3 1_555 1_555
I2_3 Zn1_3 1_555 1_555
I7_3 Zn4_3 1_555 1_555
I8_3 Zn4_3 1_555 1_555
I17_3 Zn9_3 1_555 1_555
I18_3 Zn9_3 1_555 1_555
Zn4_3 N16_3 1_555 1_555
Zn9_3 N36_3 1_555 1_555
N16_3 C42_3 1_555 1_555
C40_3 C41_3 1_555 1_555
C41_3 H25_3 1_555 1_555
C42_3 C41_3 1_555 1_555
H26_3 C42_3 1_555 1_555
C43_3 N16_3 1_555 1_555
H27_3 C43_3 1_555 1_555
C44_3 C40_3 1_555 1_555
H28_3 C44_3 1_555 1_555
N19_3 C55_3 1_555 1_555
N20_3 C55_3 1_555 1_555
N21_3 C56_3 1_555 1_555
N22_2 C60_3 1_555 1_555
N23_3 Zn4_3 1_555 1_555
C55_3 C58_3 1_555 1_555
C56_3 N20_3 1_555 1_555
C57_3 N19_3 1_555 1_555
C58_3 C59_3 1_555 1_555
C59_3 H37_3 1_555 1_555
C60_3 C59_3 1_555 1_555
H38_3 C60_3 1_555 1_555
C61_3 N22_2 1_555 1_555
H39_3 C61_3 1_555 1_555
C62_3 C58_3 1_555 1_555
H40_3 C62_3 1_555 1_555
C63_3 C56_3 1_555 1_555
C64_3 C63_3 1_555 1_555
H41_3 C64_3 1_555 1_555
C65_3 N23_3 1_555 1_555
H42_3 C65_3 1_555 1_555
C66_3 N23_3 1_555 1_555
H43_3 C66_3 1_555 1_555
C67_3 C63_3 1_555 1_555
H44_3 C67_3 1_555 1_555
C68_3 C57_3 1_555 1_555
C69_3 C68_3 1_555 1_555
H45_3 C69_3 1_555 1_555
C70_3 C69_3 1_555 1_555
H47_3 C71_3 1_555 1_555
C72_3 C68_3 1_555 1_555
H48_3 C72_3 1_555 1_555
N35_3 Zn1_3 1_555 1_555
N36_3 C106_3 1_555 1_555
C102_3 N35_3 1_555 1_555
H67_3 C102_3 1_555 1_555
H68_3 C103_3 1_555 1_555
H69_3 C105_3 1_555 1_555
C106_3 C105_3 1_555 1_555
H70_3 C106_3 1_555 1_555
N41_3 Zn9_3 1_555 1_555
C120_3 N41_3 1_555 1_555
H79_3 C120_3 1_555 1_555
Zn15_2 N22_2 1_555 1_555
C43_3 C44_3 1_555 1_555
N21_3 C57_3 1_555 1_555
C61_3 C62_3 1_555 1_555
C64_3 C65_3 1_555 1_555
C66_3 C67_3 1_555 1_555
C71_3 C72_3 1_555 1_555
C102_3 C103_3 1_555 1_555
I3_3 Zn2 1_555 1_555
I4_3 Zn2 1_555 1_555
I5_3 Zn3_3 1_555 1_555
I6_3 Zn3_3 1_555 1_555
Zn2 N30_3 1_555 1_555
Zn3_3 N24_3 1_555 1_555
N25_3 C73_3 1_555 1_555
N26_3 C73_3 1_555 1_555
N27_3 C74_3 1_555 1_555
N28_3 C78_3 1_555 1_555
N29_3 Zn3_3 1_555 1_555
N30_3 C88_3 1_555 1_555
C73_3 C76_3 1_555 1_555
C74_3 N26_3 1_555 1_555
C75_3 N25_3 1_555 1_555
C76_3 C77_3 1_555 1_555
C77_3 H49_3 1_555 1_555
C78_3 C77_3 1_555 1_555
H50_3 C78_3 1_555 1_555
C79_3 N28_3 1_555 1_555
C80_3 C76_3 1_555 1_555
H52_3 C80_3 1_555 1_555
C81_3 C74_3 1_555 1_555
C82_3 C81_3 1_555 1_555
H53_3 C82_3 1_555 1_555
C83_3 N29_3 1_555 1_555
H54_3 C83_3 1_555 1_555
C84_3 N29_3 1_555 1_555
H55_3 C84_3 1_555 1_555
C85_3 C81_3 1_555 1_555
H56_3 C85_3 1_555 1_555
C86_3 C75_3 1_555 1_555
C87_3 C86_3 1_555 1_555
H57_3 C87_3 1_555 1_555
C88_3 C87_3 1_555 1_555
H58_3 C88_3 1_555 1_555
C89_3 N30_3 1_555 1_555
H59_3 C89_3 1_555 1_555
C90_3 C86_3 1_555 1_555
H60_3 C90_3 1_555 1_555
N31_3 C91_3 1_555 1_555
N32_3 C91_3 1_555 1_555
N33_3 C92_3 1_555 1_555
N34_2 C96_3 1_555 1_555
C91_3 C94_3 1_555 1_555
C92_3 N32_3 1_555 1_555
C93_3 N31_3 1_555 1_555
C94_3 C95_3 1_555 1_555
C95_3 H61_3 1_555 1_555
C96_3 C95_3 1_555 1_555
H62_3 C96_3 1_555 1_555
C97_3 N34_2 1_555 1_555
H63_3 C97_3 1_555 1_555
C98_3 C94_3 1_555 1_555
H64_3 C98_3 1_555 1_555
C99_3 C92_3 1_555 1_555
C100_3 C99_3 1_555 1_555
H65_3 C100_3 1_555 1_555
H66_3 C101_3 1_555 1_555
C104_3 C93_3 1_555 1_555
H71_3 C107_3 1_555 1_555
C108_3 C104_3 1_555 1_555
H72_3 C108_3 1_555 1_555
H77_3 C118_3 1_555 1_555
H78_3 C119_3 1_555 1_555
Zn16_2 N34_2 1_555 1_555
N53 Zn2 1_555 1_555
N27_3 C75_3 1_555 1_555
C79_3 C80_3 1_555 1_555
C82_3 C83_3 1_555 1_555
C84_3 C85_3 1_555 1_555
C89_3 C90_3 1_555 1_555
N33_3 C93_3 1_555 1_555
C97_3 C98_3 1_555 1_555
C100_3 C101_3 1_555 1_555
C107_3 C108_3 1_555 1_555
C118_3 C119_3 1_555 1_555
I19_3 Zn10_2 1_555 1_555
I20_3 Zn10_2 1_555 1_555
Zn10_2 N42_3 1_555 1_555
N37_3 C109_3 1_555 1_555
N38_3 C109_3 1_555 1_555
N39_3 C110_3 1_555 1_555
N42_3 C124_3 1_555 1_555
C110_3 N38_3 1_555 1_555
C111_3 N37_3 1_555 1_555
C117_3 C110_3 1_555 1_555
C121_3 C117_3 1_555 1_555
H80_3 C121_3 1_555 1_555
C122_3 C111_3 1_555 1_555
C123_3 C122_3 1_555 1_555
H81_3 C123_3 1_555 1_555
C124_3 C123_3 1_555 1_555
H82_3 C124_3 1_555 1_555
C125_3 N42_3 1_555 1_555
H83_3 C125_3 1_555 1_555
C126_3 C122_3 1_555 1_555
H84_3 C126_3 1_555 1_555
N52_2 Zn10_2 1_555 1_555
N39_3 C111_3 1_555 1_555
C125_3 C126_3 1_555 1_555
I22_3 Zn11_3 1_555 1_555
Zn11_3 N40_3 1_555 1_555
N40_3 C114_3 1_555 1_555
C112_3 C113_3 1_555 1_555
C113_3 H73_3 1_555 1_555
C114_3 C113_3 1_555 1_555
H74_3 C114_3 1_555 1_555
C115_3 N40_3 1_555 1_555
C116_3 C112_3 1_555 1_555
N43_3 C127_3 1_555 1_555
N44_3 C127_3 1_555 1_555
N45_3 C128_3 1_555 1_555
N47_3 Zn11_3 1_555 1_555
N53 C142_3 1_555 1_555
C127_3 C130_3 1_555 1_555
C128_3 N44_3 1_555 1_555
C129_3 N43_3 1_555 1_555
C130_3 C131_3 1_555 1_555
C131_3 H85_3 1_555 1_555
C132_3 C131_3 1_555 1_555
H86_3 C132_3 1_555 1_555
C134_3 C130_3 1_555 1_555
H88_3 C134_3 1_555 1_555
C135_3 C128_3 1_555 1_555
C136_3 C135_3 1_555 1_555
H89_3 C136_3 1_555 1_555
C137_3 N47_3 1_555 1_555
H90_3 C137_3 1_555 1_555
C138_3 N47_3 1_555 1_555
H91_3 C138_3 1_555 1_555
C139_3 C135_3 1_555 1_555
H92_3 C139_3 1_555 1_555
C140_3 C129_3 1_555 1_555
C141_3 C140_3 1_555 1_555
H93_3 C141_3 1_555 1_555
C142_3 C141_3 1_555 1_555
H94_3 C142_3 1_555 1_555
C143_3 N53 1_555 1_555
H95_3 C143_3 1_555 1_555
C144_3 C140_3 1_555 1_555
H96_3 C144_3 1_555 1_555
C115_3 C116_3 1_555 1_555
N45_3 C129_3 1_555 1_555
C133_3 C134_3 1_555 1_555
C136_3 C137_3 1_555 1_555
C138_3 C139_3 1_555 1_555
C143_3 C144_3 1_555 1_555
I15_4 Zn15_2 1_555 1_555
I16_4 Zn15_2 1_555 1_555
Zn15_2 N6_4 1_555 1_555
N6_4 C16_4 1_555 1_555
H10_4 C16_4 1_555 1_555
C17_4 N6_4 1_555 1_555
H11_4 C17_4 1_555 1_555
H12_4 C18_4 1_555 1_555
N50_2 C52_3 1_555 1_555
H34_3 C52_3 1_555 1_555
C53_4 N50_2 1_555 1_555
H35_4 C53_4 1_555 1_555
H36_4 C54_4 1_555 1_555
C17_4 C18_4 1_555 1_555
C53_4 C54_4 1_555 1_555
I3_4 Zn2_2 1_555 1_555
I4_4 Zn2_2 1_555 1_555
Zn2_2 N30_4 1_555 1_555
N30_4 C88_4 1_555 1_555
H58_4 C88_4 1_555 1_555
C89_4 N30_4 1_555 1_555
H59_4 C89_4 1_555 1_555
H60_4 C90_4 1_555 1_555
N53_2 Zn2_2 1_555 1_555
C89_4 C90_4 1_555 1_555
I2_4 Zn1_4 1_555 1_555
I5_4 Zn3_4 1_555 1_555
I6_4 Zn3_4 1_555 1_555
I7_4 Zn4_4 1_555 1_555
I17_4 Zn9_4 1_555 1_555
I18_4 Zn9_4 1_555 1_555
I19_4 Zn16_2 1_555 1_555
I20_4 Zn16_2 1_555 1_555
Zn1_4 N28_4 1_555 1_555
Zn3_4 N24_4 1_555 1_555
Zn4_4 N16_4 1_555 1_555
Zn9_4 N36_4 1_555 1_555
Zn16_2 N42_4 1_555 1_555
N16_4 C42_4 1_555 1_555
C40_4 C41_4 1_555 1_555
C42_4 C41_4 1_555 1_555
C43_4 N16_4 1_555 1_555
H27_4 C43_4 1_555 1_555
C44_4 C40_4 1_555 1_555
H28_4 C44_4 1_555 1_555
N19_4 C55_4 1_555 1_555
N20_4 C55_4 1_555 1_555
N21_4 C56_4 1_555 1_555
N51_2 C60_4 1_555 1_555
N23_4 Zn4_4 1_555 1_555
N24_4 C70_4 1_555 1_555
C55_4 C58_4 1_555 1_555
C56_4 N20_4 1_555 1_555
C57_4 N19_4 1_555 1_555
C58_4 C59_4 1_555 1_555
C59_4 H37_4 1_555 1_555
C60_4 C59_4 1_555 1_555
H38_4 C60_4 1_555 1_555
C61_4 N51_2 1_555 1_555
H39_4 C61_4 1_555 1_555
C62_4 C58_4 1_555 1_555
H40_4 C62_4 1_555 1_555
C63_4 C56_4 1_555 1_555
C64_4 C63_4 1_555 1_555
H41_4 C64_4 1_555 1_555
C65_4 N23_4 1_555 1_555
H42_4 C65_4 1_555 1_555
C66_4 N23_4 1_555 1_555
H43_4 C66_4 1_555 1_555
C67_4 C63_4 1_555 1_555
H44_4 C67_4 1_555 1_555
C68_4 C57_4 1_555 1_555
C69_4 C68_4 1_555 1_555
H45_4 C69_4 1_555 1_555
C70_4 C69_4 1_555 1_555
H46_4 C70_4 1_555 1_555
C71_4 N24_4 1_555 1_555
H47_4 C71_4 1_555 1_555
C72_4 C68_4 1_555 1_555
H48_4 C72_4 1_555 1_555
N25_4 C73_4 1_555 1_555
N26_4 C73_4 1_555 1_555
N27_4 C74_4 1_555 1_555
N28_4 C78_4 1_555 1_555
N29_4 Zn3_4 1_555 1_555
C73_4 C76_4 1_555 1_555
C74_4 N26_4 1_555 1_555
C75_4 N25_4 1_555 1_555
C76_4 C77_4 1_555 1_555
C78_4 C77_4 1_555 1_555
C79_4 N28_4 1_555 1_555
H51_4 C79_4 1_555 1_555
C80_4 C76_4 1_555 1_555
H52_4 C80_4 1_555 1_555
C81_4 C74_4 1_555 1_555
C82_4 C81_4 1_555 1_555
H53_4 C82_4 1_555 1_555
C83_4 N29_4 1_555 1_555
H54_4 C83_4 1_555 1_555
C84_4 N29_4 1_555 1_555
H55_4 C84_4 1_555 1_555
C85_4 C81_4 1_555 1_555
H56_4 C85_4 1_555 1_555
C86_4 C75_4 1_555 1_555
C87_4 C86_4 1_555 1_555
H57_4 C87_4 1_555 1_555
N31_4 C91_4 1_555 1_555
N32_4 C91_4 1_555 1_555
N33_4 C92_4 1_555 1_555
N52_2 C96_4 1_555 1_555
N35_4 Zn1_4 1_555 1_555
N36_4 C106_4 1_555 1_555
C91_4 C94_4 1_555 1_555
C92_4 N32_4 1_555 1_555
C93_4 N31_4 1_555 1_555
C94_4 C95_4 1_555 1_555
C95_4 H61_4 1_555 1_555
C96_4 C95_4 1_555 1_555
H62_4 C96_4 1_555 1_555
C97_4 N52_2 1_555 1_555
H63_4 C97_4 1_555 1_555
C98_4 C94_4 1_555 1_555
H64_4 C98_4 1_555 1_555
C99_4 C92_4 1_555 1_555
C100_4 C99_4 1_555 1_555
H65_4 C100_4 1_555 1_555
C101_4 N35_4 1_555 1_555
H66_4 C101_4 1_555 1_555
C102_4 N35_4 1_555 1_555
H67_4 C102_4 1_555 1_555
C103_4 C99_4 1_555 1_555
H68_4 C103_4 1_555 1_555
C104_4 C93_4 1_555 1_555
C105_4 C104_4 1_555 1_555
H69_4 C105_4 1_555 1_555
C106_4 C105_4 1_555 1_555
H70_4 C106_4 1_555 1_555
C107_4 N36_4 1_555 1_555
H71_4 C107_4 1_555 1_555
C108_4 C104_4 1_555 1_555
H72_4 C108_4 1_555 1_555
N37_4 C109_4 1_555 1_555
N38_4 C109_4 1_555 1_555
N39_4 C110_4 1_555 1_555
N41_4 Zn9_4 1_555 1_555
N42_4 C124_4 1_555 1_555
C110_4 N38_4 1_555 1_555
C111_4 N37_4 1_555 1_555
C117_4 C110_4 1_555 1_555
C118_4 C117_4 1_555 1_555
H77_4 C118_4 1_555 1_555
C119_4 N41_4 1_555 1_555
H78_4 C119_4 1_555 1_555
C120_4 N41_4 1_555 1_555
H79_4 C120_4 1_555 1_555
C121_4 C117_4 1_555 1_555
H80_4 C121_4 1_555 1_555
C122_4 C111_4 1_555 1_555
C123_4 C122_4 1_555 1_555
H81_4 C123_4 1_555 1_555
C124_4 C123_4 1_555 1_555
H82_4 C124_4 1_555 1_555
C125_4 N42_4 1_555 1_555
H83_4 C125_4 1_555 1_555
C126_4 C122_4 1_555 1_555
H84_4 C126_4 1_555 1_555
C43_4 C44_4 1_555 1_555
N21_4 C57_4 1_555 1_555
C61_4 C62_4 1_555 1_555
C64_4 C65_4 1_555 1_555
C66_4 C67_4 1_555 1_555
C71_4 C72_4 1_555 1_555
N27_4 C75_4 1_555 1_555
C79_4 C80_4 1_555 1_555
C82_4 C83_4 1_555 1_555
C84_4 C85_4 1_555 1_555
N33_4 C93_4 1_555 1_555
C97_4 C98_4 1_555 1_555
C100_4 C101_4 1_555 1_555
C102_4 C103_4 1_555 1_555
C107_4 C108_4 1_555 1_555
N39_4 C111_4 1_555 1_555
C118_4 C119_4 1_555 1_555
C120_4 C121_4 1_555 1_555
C125_4 C126_4 1_555 1_555
I21_2 Zn11_4 1_555 1_555
I22_4 Zn11_4 1_555 1_555
I23_3 Zn17_2 1_555 1_555
I24_3 Zn17_2 1_555 1_555
Zn11_4 N40_4 1_555 1_555
Zn17_2 N46_3 1_555 1_555
N40_4 C114_4 1_555 1_555
C112_4 C113_4 1_555 1_555
C113_4 H73_4 1_555 1_555
C114_4 C113_4 1_555 1_555
H74_4 C114_4 1_555 1_555
C115_4 N40_4 1_555 1_555
H75_2 C115_4 1_555 1_555
C116_4 C112_4 1_555 1_555
H76_2 C116_4 1_555 1_555
N43_4 C127_4 1_555 1_555
N44_4 C127_4 1_555 1_555
N45_4 C128_4 1_555 1_555
N46_3 C132_4 1_555 1_555
N47_4 Zn11_4 1_555 1_555
N53_2 C142_4 1_555 1_555
C127_4 C130_4 1_555 1_555
C128_4 N44_4 1_555 1_555
C129_4 N43_4 1_555 1_555
C130_4 C131_4 1_555 1_555
C131_4 H85_4 1_555 1_555
C132_4 C131_4 1_555 1_555
H86_4 C132_4 1_555 1_555
C133_4 N46_3 1_555 1_555
H87_3 C133_4 1_555 1_555
C134_4 C130_4 1_555 1_555
H88_4 C134_4 1_555 1_555
C135_4 C128_4 1_555 1_555
C136_4 C135_4 1_555 1_555
H89_4 C136_4 1_555 1_555
C137_4 N47_4 1_555 1_555
H90_4 C137_4 1_555 1_555
C138_4 N47_4 1_555 1_555
H91_4 C138_4 1_555 1_555
C139_4 C135_4 1_555 1_555
H92_4 C139_4 1_555 1_555
C140_4 C129_4 1_555 1_555
C141_4 C140_4 1_555 1_555
H93_4 C141_4 1_555 1_555
C142_4 C141_4 1_555 1_555
H94_4 C142_4 1_555 1_555
C143_4 N53_2 1_555 1_555
H95_4 C143_4 1_555 1_555
C144_4 C140_4 1_555 1_555
H96_4 C144_4 1_555 1_555
C115_4 C116_4 1_555 1_555
N45_4 C129_4 1_555 1_555
C133_4 C134_4 1_555 1_555
C136_4 C137_4 1_555 1_555
C138_4 C139_4 1_555 1_555
C143_4 C144_4 1_555 1_555
N18_2 C52_4 1_555 1_555
H34_4 C52_4 1_555 1_555
Zn14_2 N18_2 1_555 1_555
I11_4 Zn14_2 1_555 1_555
I12_4 Zn14_2 1_555 1_555
I14_4 Zn7_4 1_555 1_555
Zn14_2 N10_4 1_555 1_555
Zn7_4 N4_4 1_555 1_555
N11_4 Zn7_4 1_555 1_555
C25_4 N10_4 1_555 1_555
H15_4 C25_4 1_555 1_555
H16_4 C26_4 1_555 1_555
H17_4 C28_4 1_555 1_555
C29_4 N11_4 1_555 1_555
H18_4 C29_4 1_555 1_555
C25_4 C26_4 1_555 1_555
C28_4 C29_4 1_555 1_555
I23_4 Zn12_2 1_555 1_555
I24_4 Zn12_2 1_555 1_555
Zn12_2 N46_4 1_555 1_555
N49_2 Zn12_2 1_555 1_555
I9_4 Zn5_4 1_555 1_555
I10_4 Zn5_4 1_555 1_555
Zn5_4 N12_4 1_555 1_555
N1_4 C1_4 1_555 1_555
N2_4 C1_4 1_555 1_555
N3_4 C2_4 1_555 1_555
N49_2 C11_4 1_555 1_555
C1_4 C4_4 1_555 1_555
C2_4 N2_4 1_555 1_555
C3_4 N1_4 1_555 1_555
C4_4 C5_4 1_555 1_555
C6_4 C5_4 1_555 1_555
C8_4 C4_4 1_555 1_555
H4_4 C8_4 1_555 1_555
C9_4 C2_4 1_555 1_555
C10_4 C9_4 1_555 1_555
H5_4 C10_4 1_555 1_555
C11_4 C10_4 1_555 1_555
H6_4 C11_4 1_555 1_555
C12_4 N49_2 1_555 1_555
H7_4 C12_4 1_555 1_555
C13_4 C9_4 1_555 1_555
H8_4 C13_4 1_555 1_555
C14_4 C3_4 1_555 1_555
C15_4 C14_4 1_555 1_555
H9_4 C15_4 1_555 1_555
N7_4 C19_4 1_555 1_555
N8_4 C19_4 1_555 1_555
N9_4 C20_4 1_555 1_555
N12_4 C34_4 1_555 1_555
C19_4 C22_4 1_555 1_555
C20_4 N8_4 1_555 1_555
C21_4 N7_4 1_555 1_555
C22_4 C23_4 1_555 1_555
C23_4 H13_4 1_555 1_555
C24_4 C23_4 1_555 1_555
H14_4 C24_4 1_555 1_555
C27_4 C20_4 1_555 1_555
H19_4 C30_4 1_555 1_555
C31_4 C27_4 1_555 1_555
H20_4 C31_4 1_555 1_555
C32_4 C21_4 1_555 1_555
C33_4 C32_4 1_555 1_555
H21_4 C33_4 1_555 1_555
C34_4 C33_4 1_555 1_555
H22_4 C34_4 1_555 1_555
C35_4 N12_4 1_555 1_555
H23_4 C35_4 1_555 1_555
C36_4 C32_4 1_555 1_555
H24_4 C36_4 1_555 1_555
N13_4 C37_4 1_555 1_555
N14_4 C37_4 1_555 1_555
N15_4 C38_4 1_555 1_555
N17_4 Zn5_4 1_555 1_555
C38_4 N14_4 1_555 1_555
C39_4 N13_4 1_555 1_555
C45_4 C38_4 1_555 1_555
C46_4 C45_4 1_555 1_555
H29_4 C46_4 1_555 1_555
C47_4 N17_4 1_555 1_555
H30_4 C47_4 1_555 1_555
C48_4 N17_4 1_555 1_555
H31_4 C48_4 1_555 1_555
C49_4 C45_4 1_555 1_555
H32_4 C49_4 1_555 1_555
C50_4 C39_4 1_555 1_555
C51_4 C50_4 1_555 1_555
H33_4 C51_4 1_555 1_555
N3_4 C3_4 1_555 1_555
C7_4 C8_4 1_555 1_555
C12_4 C13_4 1_555 1_555
N9_4 C21_4 1_555 1_555
C30_4 C31_4 1_555 1_555
C35_4 C36_4 1_555 1_555
N15_4 C39_4 1_555 1_555
C46_4 C47_4 1_555 1_555
C48_4 C49_4 1_555 1_555

#END
