
###############################################################################
#
# This file contains modified crystal structure data generated from the
# MOF subset of the Cambridge Structural Database (CSD) v543 
# hosted by the Cambridge Crystallographic Data Centre (CCDC).
#
# This work is licensed under the Creative Commons
# Attribution-NonCommercial-ShareAlike 4.0 International License.
# To view a copy of this license, visit
# http://creativecommons.org/licenses/by-nc-sa/4.0/
# or send a letter to
# Creative Commons, PO Box 1866, Mountain View, CA 94042, USA.
#
# CIF created using the CSD Python API on 29 September 2022
# The structure has been converted into the P1 space group
# The structure has a 3D framework
# The original CSD entry ZUDQEW is in the triclinic crystal system
# The framework has been calculated to contain at least 10.0% void space
# The void calculation uses a probe of radius 1.32A, grid spacing 0.4
# H atom positions have been added when not included in the experimental data
#
###############################################################################

data_ZUDQEW
_chemical_formula_moiety         '(C54 H74 Cd6 N6 O34)n'
_symmetry_cell_setting           triclinic
_symmetry_space_group_name_H-M   'P 1'
_symmetry_Int_Tables_number      1
_space_group_name_Hall           'P 1'
loop_
_symmetry_equiv_pos_site_id
_symmetry_equiv_pos_as_xyz
1 x,y,z
_cell_length_a                   11.5178(5)
_cell_length_b                   12.4126(5)
_cell_length_c                   13.1708(5)
_cell_angle_alpha                94.261(3)
_cell_angle_beta                 92.978(3)
_cell_angle_gamma                93.134(3)
_cell_volume                     1871.99
loop_
_atom_site_label
_atom_site_type_symbol
_atom_site_fract_x
_atom_site_fract_y
_atom_site_fract_z
H7 H 0.0002 0.1170 0.5047
H13 H 0.0163 0.3685 0.5057
C25 C 0.0512(6) 0.2231(5) 0.6303(6)
H17 H 0.0750 0.1974 0.6956
H18 H 0.1204 0.2355 0.5929
H19 H 0.0120 0.0532 0.2473
Cd5 Cd 0.12088(3) 0.46578(3) 0.72660(3)
O16 O 0.0023(4) 0.6072(4) 0.6849(3)
H21 H 0.0399 0.9652 0.1618
Cd1 Cd 0.72349(3) 0.04160(3) 0.47506(3)
Cd3 Cd 0.47107(4) 0.68328(3) 0.12148(3)
C1 C 0.4369(4) 0.4528(4) 0.3400(4)
N1 N 0.8521(4) 0.1777(3) 0.5536(3)
O2 O 0.2713(3) 0.5687(3) 0.8239(3)
O3 O 0.2128(3) 0.5071(3) 0.5779(3)
N2 N 0.9932(4) 0.3255(3) 0.6471(3)
O4 O 0.6158(4) 0.7695(3) 0.2297(3)
O5 O 0.2817(3) 0.3750(3) 0.6590(3)
O6 O 0.6316(3) 0.1734(3) 0.3515(3)
C2 C 0.2793(4) 0.4314(4) 0.5836(4)
O8 O 0.5773(3) 0.1535(3) 0.5058(3)
O10 O 0.3278(4) 0.5727(4) 0.0327(3)
C3 C 0.4989(4) 0.2974(4) 0.4216(4)
O11 O 0.5146(3) 0.5093(3) 0.1864(3)
C4 C 0.5027(4) 0.3635(4) 0.3419(4)
H1 H 0.5505 0.3476 0.2887
C5 C 0.5729(4) 0.2020(4) 0.4250(4)
C6 C 0.4270(4) 0.3217(4) 0.5004(4)
H2 H 0.4250 0.2783 0.5549
O12 O 0.8401(3) 0.0206(3) 0.3403(3)
O13 O 0.3893(4) 0.6115(3) 0.2616(3)
C7 C 0.3586(4) 0.4088(4) 0.4991(4)
C10 C 0.4469(5) 0.5291(4) 0.2575(4)
C13 C 0.3637(4) 0.4749(4) 0.4189(4)
H4 H 0.3180 0.5343 0.4178
O17 O 0.1487(4) 0.3515(3) 0.8620(3)
O19 O 0.3666(4) 0.8376(4) 0.1472(4)
C19 C 0.9688(5) 0.1366(5) 0.5700(6)
H8 H 0.9630 0.0722 0.6073
C21 C 0.8107(5) 0.2119(5) 0.6549(5)
H9 H 0.8084 0.1509 0.6969
H10 H 0.7324 0.2364 0.6471
C22 C 0.8914(6) 0.3027(6) 0.7067(5)
H11 H 0.8487 0.3677 0.7159
H12 H 0.9176 0.2830 0.7736
C23 C 0.9510(6) 0.3582(5) 0.5483(5)
H14 H 0.9147 0.4266 0.5579
C24 C 0.8626(6) 0.2730(5) 0.4945(5)
H15 H 0.7873 0.3037 0.4868
H16 H 0.8875 0.2517 0.4271
C26 C 0.9903(7) 0.0225(8) 0.1794(6)
H20 H 0.9985 0.0775 0.1323
O21 O 0.6303(3) 0.6482(3) 0.0180(3)
H25 H 0.68444 0.724506 0.231851
H26 H 0.638566 0.840769 0.204756
H27 H 0.273261 0.644557 0.80454
H28 H 0.256875 0.567424 0.897492
H31 H 0.262699 0.558925 0.0774689
H33 H 0.133871 0.391574 0.927699
H34 H 0.0938477 0.286662 0.850567
H35 H 0.411845 0.900998 0.124548
H36 H 0.290783 0.827306 0.10723
O20 O 0.5217(3) 0.7758(3) 0.9676(3)
H32 H 0.298589 0.608451 0.972202
O1 O 0.5733(3) 0.9337(3) 0.3755(3)
O9 O 0.7751(4) 0.9091(3) 0.5699(3)
C8 C 0.9476(5) 0.6057(4) 0.7630(4)
C9 C 0.6080(5) 0.7197(5) 0.9572(4)
O15 O 0.9736(3) 0.5437(3) 0.8317(3)
C11 C 0.6862(4) 0.7361(4) 0.8724(4)
C12 C 0.8275(5) 0.7563(4) 0.7079(4)
H3 H 0.8729 0.7615 0.6519
C14 C 0.6675(5) 0.8146(4) 0.8041(4)
H5 H 0.6072 0.8607 0.8133
C15 C 0.7786(5) 0.6693(4) 0.8574(4)
H6 H 0.7925 0.6167 0.9026
O18 O 0.6411(4) 0.9766(4) 0.6665(4)
N3 N 0.8717(5) 0.9805(4) 0.1748(4)
C16 C 0.8495(4) 0.6797(4) 0.7772(4)
C17 C 0.7157(5) 0.9099(5) 0.6468(5)
C18 C 0.7379(5) 0.8249(4) 0.7223(4)
C20 C 0.8059(6) 0.9832(5) 0.2537(5)
C27 C 0.8263(9) 0.9280(7) 0.0748(5)
H22 H 0.7475 0.9006 0.0800
H23 H 0.8735 0.8694 0.0552
H24 H 0.8286 0.9800 0.0244
H29 H 0.584148 0.940387 0.301882
H30 H 0.577564 0.856778 0.390615
H37 H 0.716111 0.950561 0.24191
N4 N 0.0068(4) 0.6745(3) 0.3529(3)
O22 O 0.0264(3) 0.4563(3) 0.1683(3)
O1_2 O 0.4267(3) 0.0663(3) 0.6245(3)
O7 O 0.4783(3) 0.2242(3) 0.0324(3)
O9_2 O 0.2249(4) 0.0909(3) 0.4301(3)
C8_2 C 0.0524(5) 0.3943(4) 0.2370(4)
C9_2 C 0.3920(5) 0.2803(5) 0.0428(4)
C11_2 C 0.3138(4) 0.2639(4) 0.1276(4)
C12_2 C 0.1725(5) 0.2437(4) 0.2921(4)
H3_2 H 0.1271 0.2385 0.3481
C14_2 C 0.3325(5) 0.1854(4) 0.1959(4)
H5_2 H 0.3928 0.1393 0.1867
C15_2 C 0.2214(5) 0.3307(4) 0.1426(4)
H6_2 H 0.2075 0.3833 0.0974
O18_2 O 0.3589(4) 0.0234(4) 0.3335(4)
N3_2 N 0.1283(5) 0.0195(4) 0.8252(4)
C16_2 C 0.1505(4) 0.3203(4) 0.2228(4)
C17_2 C 0.2843(5) 0.0901(5) 0.3532(5)
C18_2 C 0.2621(5) 0.1751(4) 0.2777(4)
C20_2 C 0.1941(6) 0.0168(5) 0.7463(5)
C27_2 C 0.1737(9) 0.0720(7) 0.9252(5)
H22_2 H 0.2525 0.0994 0.9200
H23_2 H 0.1265 0.1306 0.9448
H24_2 H 0.1714 0.0200 0.9756
H29_2 H 0.415852 0.0596128 0.698118
H30_2 H 0.422436 0.143222 0.609385
H37_2 H 0.283889 0.0494395 0.75809
O14 O 0.3697(3) 0.3518(3) 0.9820(3)
Cd6 Cd 0.52893(4) 0.31672(3) 0.87852(3)
H32_2 H 0.701411 0.391549 0.0277982
Cd1_2 Cd 0.27651(3) 0.95840(3) 0.52494(3)
Cd2 Cd 0.87912(3) 0.53422(3) 0.27340(3)
C1_2 C 0.5631(4) 0.5472(4) 0.6600(4)
N1_2 N 0.1479(4) 0.8223(3) 0.4464(3)
O2_2 O 0.7287(3) 0.4313(3) 0.1761(3)
O3_2 O 0.7872(3) 0.4929(3) 0.4221(3)
O4_2 O 0.3842(4) 0.2305(3) 0.7703(3)
O5_2 O 0.7183(3) 0.6250(3) 0.3410(3)
O6_2 O 0.3684(3) 0.8266(3) 0.6485(3)
C2_2 C 0.7207(4) 0.5686(4) 0.4164(4)
O8_2 O 0.4227(3) 0.8465(3) 0.4942(3)
O10_2 O 0.6722(4) 0.4273(4) 0.9673(3)
C3_2 C 0.5011(4) 0.7026(4) 0.5784(4)
O11_2 O 0.4854(3) 0.4907(3) 0.8136(3)
C4_2 C 0.4973(4) 0.6365(4) 0.6581(4)
H1_2 H 0.4495 0.6524 0.7113
C5_2 C 0.4271(4) 0.7980(4) 0.5750(4)
C6_2 C 0.5730(4) 0.6783(4) 0.4996(4)
H2_2 H 0.5750 0.7217 0.4451
O12_2 O 0.1599(3) 0.9794(3) 0.6597(3)
O13_2 O 0.6107(4) 0.3885(3) 0.7384(3)
C7_2 C 0.6414(4) 0.5912(4) 0.5009(4)
C10_2 C 0.5531(5) 0.4709(4) 0.7425(4)
C13_2 C 0.6363(4) 0.5251(4) 0.5811(4)
H4_2 H 0.6820 0.4657 0.5822
O17_2 O 0.8513(4) 0.6485(3) 0.1380(3)
O19_2 O 0.6334(4) 0.1624(4) 0.8528(4)
C19_2 C 0.0312(5) 0.8634(5) 0.4300(6)
H8_2 H 0.0370 0.9278 0.3927
C21_2 C 0.1893(5) 0.7881(5) 0.3451(5)
H9_2 H 0.1916 0.8491 0.3031
H10_2 H 0.2676 0.7636 0.3529
C22_2 C 0.1086(6) 0.6973(6) 0.2933(5)
H11_2 H 0.1513 0.6323 0.2841
H12_2 H 0.0824 0.7170 0.2264
C23_2 C 0.0490(6) 0.6418(5) 0.4517(5)
H14_2 H 0.0853 0.5734 0.4421
C24_2 C 0.1374(6) 0.7270(5) 0.5055(5)
H15_2 H 0.2127 0.6963 0.5132
H16_2 H 0.1125 0.7483 0.5729
C26_2 C 0.0097(7) 0.9775(8) 0.8206(6)
H20_2 H 0.0015 0.9225 0.8677
O23 O 0.9977(4) 0.3928(4) 0.3151(3)
H25_2 H 0.31556 0.275494 0.768149
H26_2 H 0.361434 0.159231 0.795244
H27_2 H 0.726739 0.355443 0.19546
H28_2 H 0.743125 0.432576 0.102508
H31_2 H 0.737301 0.441075 0.922531
H33_2 H 0.866129 0.608426 0.0723006
H34_2 H 0.906152 0.713338 0.149433
H35_2 H 0.588155 0.0990021 0.875452
H36_2 H 0.709217 0.172694 0.89277
H21_2 H 0.9601 0.0348 0.8382
H7_2 H 0.9998 0.8830 0.4953
H13_2 H 0.9837 0.6315 0.4943
C25_2 C 0.9488(6) 0.7769(5) 0.3697(6)
H17_2 H 0.9250 0.8026 0.3044
H18_2 H 0.8796 0.7645 0.4071
H19_2 H 0.9880 0.9468 0.7527
loop_
_geom_bond_atom_site_label_1
_geom_bond_atom_site_label_2
_geom_bond_site_symmetry_1
_geom_bond_site_symmetry_2
H17 C25 1_555 1_555
H18 C25 1_555 1_555
Cd5 O16 1_555 1_555
Cd5 O2 1_555 1_555
Cd3 O4 1_555 1_555
C1 C4 1_555 1_555
N1 Cd1 1_555 1_555
O3 Cd5 1_555 1_555
N2 C22 1_555 1_555
O5 Cd5 1_555 1_555
O6 Cd1 1_555 1_555
C2 O3 1_555 1_555
O8 Cd1 1_555 1_555
O10 Cd3 1_555 1_555
C3 C4 1_555 1_555
O11 Cd3 1_555 1_555
C4 H1 1_555 1_555
C5 O6 1_555 1_555
C6 C3 1_555 1_555
H2 C6 1_555 1_555
O12 Cd1 1_555 1_555
O13 Cd3 1_555 1_555
C7 C2 1_555 1_555
C10 C1 1_555 1_555
C13 C1 1_555 1_555
H4 C13 1_555 1_555
O17 Cd5 1_555 1_555
O19 Cd3 1_555 1_555
C19 N1 1_555 1_555
H8 C19 1_555 1_555
C21 N1 1_555 1_555
H9 C21 1_555 1_555
H10 C21 1_555 1_555
C22 C21 1_555 1_555
H11 C22 1_555 1_555
H12 C22 1_555 1_555
C23 N2 1_555 1_555
H14 C23 1_555 1_555
C24 N1 1_555 1_555
H15 C24 1_555 1_555
H16 C24 1_555 1_555
H20 C26 1_555 1_555
O21 Cd3 1_555 1_555
O5 C2 1_555 1_555
O8 C5 1_555 1_555
C3 C5 1_555 1_555
O11 C10 1_555 1_555
C6 C7 1_555 1_555
O13 C10 1_555 1_555
C7 C13 1_555 1_555
C23 C24 1_555 1_555
O4 H25 1_555 1_555
O4 H26 1_555 1_555
O2 H27 1_555 1_555
O2 H28 1_555 1_555
O10 H31 1_555 1_555
O17 H33 1_555 1_555
O17 H34 1_555 1_555
O19 H35 1_555 1_555
O19 H36 1_555 1_555
O20 C9 1_555 1_555
C8 O15 1_555 1_555
C11 C9 1_555 1_555
C12 H3 1_555 1_555
C14 C11 1_555 1_555
H5 C14 1_555 1_555
C15 C11 1_555 1_555
H6 C15 1_555 1_555
O18 C17 1_555 1_555
N3 C20 1_555 1_555
C16 C8 1_555 1_555
C17 O9 1_555 1_555
C18 C12 1_555 1_555
C27 N3 1_555 1_555
H22 C27 1_555 1_555
H23 C27 1_555 1_555
H24 C27 1_555 1_555
C12 C16 1_555 1_555
C14 C18 1_555 1_555
C15 C16 1_555 1_555
C17 C18 1_555 1_555
O1 H29 1_555 1_555
O1 H30 1_555 1_555
C20 H37 1_555 1_555
O7 C9_2 1_555 1_555
C8_2 O22 1_555 1_555
C11_2 C9_2 1_555 1_555
C12_2 H3_2 1_555 1_555
C14_2 C11_2 1_555 1_555
H5_2 C14_2 1_555 1_555
C15_2 C11_2 1_555 1_555
H6_2 C15_2 1_555 1_555
O18_2 C17_2 1_555 1_555
N3_2 C20_2 1_555 1_555
C16_2 C8_2 1_555 1_555
C17_2 O9_2 1_555 1_555
C18_2 C12_2 1_555 1_555
C27_2 N3_2 1_555 1_555
H22_2 C27_2 1_555 1_555
H23_2 C27_2 1_555 1_555
H24_2 C27_2 1_555 1_555
C12_2 C16_2 1_555 1_555
C14_2 C18_2 1_555 1_555
C15_2 C16_2 1_555 1_555
C17_2 C18_2 1_555 1_555
O1_2 H29_2 1_555 1_555
O1_2 H30_2 1_555 1_555
C20_2 H37_2 1_555 1_555
O14 Cd6 1_555 1_555
Cd2 O2_2 1_555 1_555
Cd6 O4_2 1_555 1_555
C1_2 C4_2 1_555 1_555
N1_2 Cd1_2 1_555 1_555
O3_2 Cd2 1_555 1_555
N4 C22_2 1_555 1_555
O5_2 Cd2 1_555 1_555
O6_2 Cd1_2 1_555 1_555
C2_2 O3_2 1_555 1_555
O8_2 Cd1_2 1_555 1_555
O10_2 Cd6 1_555 1_555
C3_2 C4_2 1_555 1_555
O11_2 Cd6 1_555 1_555
C4_2 H1_2 1_555 1_555
C5_2 O6_2 1_555 1_555
C6_2 C3_2 1_555 1_555
H2_2 C6_2 1_555 1_555
O12_2 Cd1_2 1_555 1_555
O13_2 Cd6 1_555 1_555
C7_2 C2_2 1_555 1_555
C10_2 C1_2 1_555 1_555
C13_2 C1_2 1_555 1_555
H4_2 C13_2 1_555 1_555
O17_2 Cd2 1_555 1_555
O19_2 Cd6 1_555 1_555
C19_2 N1_2 1_555 1_555
H8_2 C19_2 1_555 1_555
C21_2 N1_2 1_555 1_555
H9_2 C21_2 1_555 1_555
H10_2 C21_2 1_555 1_555
C22_2 C21_2 1_555 1_555
H11_2 C22_2 1_555 1_555
H12_2 C22_2 1_555 1_555
C23_2 N4 1_555 1_555
H14_2 C23_2 1_555 1_555
C24_2 N1_2 1_555 1_555
H15_2 C24_2 1_555 1_555
H16_2 C24_2 1_555 1_555
H20_2 C26_2 1_555 1_555
O23 Cd2 1_555 1_555
O5_2 C2_2 1_555 1_555
O8_2 C5_2 1_555 1_555
C3_2 C5_2 1_555 1_555
O11_2 C10_2 1_555 1_555
C6_2 C7_2 1_555 1_555
O13_2 C10_2 1_555 1_555
C7_2 C13_2 1_555 1_555
C23_2 C24_2 1_555 1_555
O4_2 H25_2 1_555 1_555
O4_2 H26_2 1_555 1_555
O2_2 H27_2 1_555 1_555
O2_2 H28_2 1_555 1_555
O10_2 H31_2 1_555 1_555
O17_2 H33_2 1_555 1_555
O17_2 H34_2 1_555 1_555
O19_2 H35_2 1_555 1_555
O19_2 H36_2 1_555 1_555
H17_2 C25_2 1_555 1_555
H18_2 C25_2 1_555 1_555

#END
