
###############################################################################
#
# This file contains modified crystal structure data generated from the
# MOF subset of the Cambridge Structural Database (CSD) v543 
# hosted by the Cambridge Crystallographic Data Centre (CCDC).
#
# This work is licensed under the Creative Commons
# Attribution-NonCommercial-ShareAlike 4.0 International License.
# To view a copy of this license, visit
# http://creativecommons.org/licenses/by-nc-sa/4.0/
# or send a letter to
# Creative Commons, PO Box 1866, Mountain View, CA 94042, USA.
#
# CIF created using the CSD Python API on 29 September 2022
# The structure has been converted into the P1 space group
# The structure has a 3D framework
# The original CSD entry ZUJGIX is in the monoclinic crystal system
# The framework has been calculated to contain at least 10.0% void space
# The void calculation uses a probe of radius 1.32A, grid spacing 0.4
#
###############################################################################

data_ZUJGIX
_chemical_formula_moiety         '(C200 H144 Co8 N16 O46)n'
_symmetry_cell_setting           triclinic
_symmetry_space_group_name_H-M   'P 1'
_symmetry_Int_Tables_number      1
_space_group_name_Hall           'P 1'
loop_
_symmetry_equiv_pos_site_id
_symmetry_equiv_pos_as_xyz
1 x,y,z
_cell_length_a                   14.6805(17)
_cell_length_b                   16.1925(19)
_cell_length_c                   19.460(2)
_cell_angle_alpha                90
_cell_angle_beta                 93.876(2)
_cell_angle_gamma                90
_cell_volume                     4615.33
loop_
_atom_site_label
_atom_site_type_symbol
_atom_site_fract_x
_atom_site_fract_y
_atom_site_fract_z
O1 O 0.03654(13) 0.24351(13) 0.32679(10)
O2 O 0.0000 0.40328(17) 0.2500
H1 H 0.0456 0.4382 0.2725
O3 O 0.13923(13) 0.25764(12) 0.24784(10)
N2 N 0.00516(17) 0.37562(17) 0.41998(13)
C7 C 0.0322(3) 0.3530(3) 0.5412(2)
H6 H 0.0193 0.3232 0.5814
C8 C 0.0956(3) 0.4164(3) 0.5448(2)
H7 H 0.1265 0.4304 0.5877
C9 C 0.1134(3) 0.4583(3) 0.4868(2)
H8 H 0.1565 0.5022 0.4884
C10 C 0.0671(2) 0.4357(2) 0.42533(19)
H9 H 0.0804 0.4646 0.3847
C11 C 0.09753(18) 0.21681(18) 0.29080(14)
C12 C 0.11969(18) 0.12641(18) 0.30112(13)
C13 C 0.20177(19) 0.09206(19) 0.28487(13)
H10 H 0.2463 0.1251 0.2646
C14 C 0.21879(19) 0.00863(18) 0.29839(14)
C17 C 0.05345(19) 0.07724(19) 0.32892(14)
Co2 Co 0.06308(3) 0.32972(2) 0.17240(2)
N3 N 0.12061(17) 0.25956(17) 0.09426(12)
C41 C 0.1851(2) 0.2020(2) 0.10630(19)
H29 H 0.2132 0.1969 0.1515
C42 C 0.2125(3) 0.1496(3) 0.0552(2)
H30 H 0.2586 0.1093 0.0651
C45 C 0.0811(2) 0.2679(2) 0.03054(16)
C46 C 0.0121(2) 0.3337(2) 0.02177(16)
O15 O 0.16641(13) 0.41276(13) 0.17221(10)
O4 O 0.35513(14) 0.99650(14) 0.23936(11)
O5 O 0.33359(13) 0.91276(13) 0.32779(10)
O6 O 0.00721(13) 0.94008(13) 0.36555(11)
C15 C 0.15247(19) 0.95970(19) 0.32548(14)
H11 H 0.1641 0.9029 0.3344
C16 C 0.06896(19) 0.99384(19) 0.33954(14)
C18 C 0.30958(19) 0.97001(19) 0.28720(15)
Co3 Co 0.43692(3) 0.82972(2) 0.32760(2)
Co1 Co 0.93692(3) 0.32972(2) 0.32760(2)
O2_2 O 1.0000 0.40328(17) 0.2500
N1 N 0.87939(17) 0.25956(17) 0.40574(12)
C1 C 0.8149(2) 0.2020(2) 0.39370(19)
H2 H 0.7868 0.1969 0.3485
C2 C 0.7875(3) 0.1496(3) 0.4448(2)
H3 H 0.7414 0.1093 0.4349
C3 C 0.8279(4) 0.1573(3) 0.5091(2)
H4 H 0.8105 0.1221 0.5449
C4 C 0.8942(3) 0.2161(3) 0.5225(2)
H5 H 0.9230 0.2214 0.5675
C5 C 0.9189(2) 0.2679(2) 0.46946(16)
C6 C 0.9879(2) 0.3337(2) 0.47823(16)
H12 H 0.9975 0.1011 0.3406
H14 H 0.9294 0.0225 0.4122
H28 H 0.9544 0.4382 0.2275
N4 N 0.99484(17) 0.37562(17) 0.08002(13)
C49 C 0.8866(3) 0.4583(3) 0.0132(2)
H35 H 0.8435 0.5022 0.0116
C50 C 0.9329(2) 0.4357(2) 0.07467(19)
H36 H 0.9196 0.4646 0.1153
O12 O 0.96346(13) 0.24351(13) 0.17321(10)
O13 O 0.86077(13) 0.25764(12) 0.25216(10)
O14 O 0.83359(13) 0.41276(13) 0.32779(10)
H12_2 H 0.0025 0.1011 0.1594
H14_2 H 0.0706 0.0225 0.0878
C11_2 C 0.90247(18) 0.21681(18) 0.20920(14)
C12_2 C 0.88031(18) 0.12641(18) 0.19888(13)
C13_2 C 0.79823(19) 0.09206(19) 0.21513(13)
H10_2 H 0.7537 0.1251 0.2354
C14_2 C 0.78121(19) 0.00863(18) 0.20161(14)
C17_2 C 0.94655(19) 0.07724(19) 0.17108(14)
O4_2 O 0.64487(14) 0.99650(14) 0.26064(11)
O5_2 O 0.66641(13) 0.91276(13) 0.17221(10)
O6_2 O 0.99279(13) 0.94008(13) 0.13445(11)
C15_2 C 0.84753(19) 0.95970(19) 0.17452(14)
H11_2 H 0.8359 0.9029 0.1656
C16_2 C 0.93104(19) 0.99384(19) 0.16046(14)
C18_2 C 0.69042(19) 0.97001(19) 0.21280(15)
Co3_2 Co 0.56308(3) 0.82972(2) 0.17240(2)
O1_2 O 0.53654(13) 0.74351(13) 0.32679(10)
O2_3 O 0.5000 0.90328(17) 0.2500
H1_2 H 0.5456 0.9382 0.2725
O3_2 O 0.63923(13) 0.75764(12) 0.24784(10)
O4_3 O 0.85513(14) 0.49650(14) 0.23936(11)
O6_3 O 0.50721(13) 0.44008(13) 0.36555(11)
N1_2 N 0.37939(17) 0.75956(17) 0.40574(12)
N2_2 N 0.50516(17) 0.87562(17) 0.41998(13)
C1_2 C 0.3149(2) 0.7020(2) 0.39370(19)
H2_2 H 0.2868 0.6969 0.3485
C2_2 C 0.2875(3) 0.6496(3) 0.4448(2)
H3_2 H 0.2414 0.6093 0.4349
C3_2 C 0.3279(4) 0.6573(3) 0.5091(2)
H4_2 H 0.3105 0.6221 0.5449
C4_2 C 0.3942(3) 0.7161(3) 0.5225(2)
H5_2 H 0.4230 0.7214 0.5675
C5_2 C 0.4189(2) 0.7679(2) 0.46946(16)
C6_2 C 0.4879(2) 0.8337(2) 0.47823(16)
C7_2 C 0.5322(3) 0.8530(3) 0.5412(2)
H6_2 H 0.5193 0.8232 0.5814
C8_2 C 0.5956(3) 0.9164(3) 0.5448(2)
H7_2 H 0.6265 0.9304 0.5877
C9_2 C 0.6134(3) 0.9583(3) 0.4868(2)
C10_2 C 0.5671(2) 0.9357(2) 0.42533(19)
H9_2 H 0.5804 0.9646 0.3847
C11_3 C 0.59753(18) 0.71681(18) 0.29080(14)
C12_3 C 0.61969(18) 0.62641(18) 0.30112(13)
C13_3 C 0.70177(19) 0.59206(19) 0.28487(13)
H10_3 H 0.7463 0.6251 0.2646
C14_3 C 0.71879(19) 0.50863(18) 0.29839(14)
C15_3 C 0.65247(19) 0.45970(19) 0.32548(14)
H11_3 H 0.6641 0.4029 0.3344
C16_3 C 0.56896(19) 0.49384(19) 0.33954(14)
C17_3 C 0.55345(19) 0.57724(19) 0.32892(14)
H12_3 H 0.4975 0.6011 0.3406
C18_3 C 0.80958(19) 0.47001(19) 0.28720(15)
C19 C 0.4203(2) 0.4743(2) 0.38126(17)
H13 H 0.3857 0.4924 0.3385
H14_3 H 0.4294 0.5225 0.4122
C20 C 0.36877(19) 0.4075(2) 0.41595(16)
C21 C 0.3847(3) 0.3922(3) 0.48352(19)
H15 H 0.4285 0.4246 0.5096
C22 C 0.3388(3) 0.3301(3) 0.51615(19)
H16 H 0.3530 0.3205 0.5638
C23 C 0.27457(19) 0.2828(2) 0.48232(15)
C24 C 0.2604(3) 0.2978(3) 0.4138(2)
H17 H 0.2178 0.2646 0.3873
C25 C 0.3058(3) 0.3599(3) 0.3812(2)
H18 H 0.2925 0.3692 0.3334
C34 C 0.0797(2) 0.0257(2) 0.61874(17)
H22 H 0.1143 0.0076 0.6615
C35 C 0.13123(19) 0.0925(2) 0.58405(16)
C36 C 0.1153(3) 0.1078(3) 0.51648(19)
H24 H 0.0715 0.0754 0.4904
C37 C 0.1612(3) 0.1699(3) 0.48385(19)
H25 H 0.1470 0.1795 0.4362
C38 C 0.22543(19) 0.2172(2) 0.51768(15)
C39 C 0.2396(3) 0.2022(3) 0.5862(2)
H26 H 0.2822 0.2354 0.6127
C40 C 0.1942(3) 0.1401(3) 0.6188(2)
H27 H 0.2075 0.1308 0.6666
H28_2 H 0.4544 0.9382 0.2275
N3_2 N 0.62061(17) 0.75956(17) 0.09426(12)
N4_2 N 0.49484(17) 0.87562(17) 0.08002(13)
C41_2 C 0.6851(2) 0.7020(2) 0.10630(19)
H29_2 H 0.7132 0.6969 0.1515
C42_2 C 0.7125(3) 0.6496(3) 0.0552(2)
H30_2 H 0.7586 0.6093 0.0651
C45_2 C 0.5811(2) 0.7679(2) 0.03054(16)
C46_2 C 0.5121(2) 0.8337(2) 0.02177(16)
C49_2 C 0.3866(3) 0.9583(3) 0.0132(2)
C50_2 C 0.4329(2) 0.9357(2) 0.07467(19)
H36_2 H 0.4196 0.9646 0.1153
O12_2 O 0.46346(13) 0.74351(13) 0.17321(10)
O13_2 O 0.36077(13) 0.75764(12) 0.25216(10)
O4_4 O 0.14487(14) 0.49650(14) 0.26064(11)
O6_4 O 0.49279(13) 0.44008(13) 0.13445(11)
C11_4 C 0.40247(18) 0.71681(18) 0.20920(14)
C12_4 C 0.38031(18) 0.62641(18) 0.19888(13)
C13_4 C 0.29823(19) 0.59206(19) 0.21513(13)
H10_4 H 0.2537 0.6251 0.2354
C14_4 C 0.28121(19) 0.50863(18) 0.20161(14)
C15_4 C 0.34753(19) 0.45970(19) 0.17452(14)
H11_4 H 0.3359 0.4029 0.1656
C16_4 C 0.43104(19) 0.49384(19) 0.16046(14)
C17_4 C 0.44655(19) 0.57724(19) 0.17108(14)
H12_4 H 0.5025 0.6011 0.1594
C18_4 C 0.19042(19) 0.47001(19) 0.21280(15)
C19_2 C 0.5797(2) 0.4743(2) 0.11874(17)
H13_2 H 0.6143 0.4924 0.1615
H14_4 H 0.5706 0.5225 0.0878
C20_2 C 0.63123(19) 0.4075(2) 0.08405(16)
C21_2 C 0.6153(3) 0.3922(3) 0.01648(19)
C23_2 C 0.72543(19) 0.2828(2) 0.01768(15)
C24_2 C 0.7396(3) 0.2978(3) 0.0862(2)
H17_2 H 0.7822 0.2646 0.1127
C25_2 C 0.6942(3) 0.3599(3) 0.1188(2)
H18_2 H 0.7075 0.3692 0.1666
H24_2 H 0.9285 0.0754 0.0096
C37_2 C 0.8388(3) 0.1699(3) 0.01615(19)
H25_2 H 0.8530 0.1795 0.0638
C43 C 0.1721(4) 0.1573(3) 0.9909(2)
H31 H 0.1895 0.1221 0.9551
C44 C 0.1058(3) 0.2161(3) 0.9775(2)
H32 H 0.0770 0.2214 0.9325
C47 C 0.9678(3) 0.3530(3) 0.9588(2)
H33 H 0.9807 0.3232 0.9186
C48 C 0.9044(3) 0.4164(3) 0.9552(2)
H34 H 0.8735 0.4304 0.9123
C19_3 C 0.9203(2) 0.9743(2) 0.38126(17)
H13_3 H 0.8857 0.9924 0.3385
C20_3 C 0.86877(19) 0.9075(2) 0.41595(16)
C21_3 C 0.8847(3) 0.8922(3) 0.48352(19)
H15_2 H 0.9285 0.9246 0.5096
C22_2 C 0.8388(3) 0.8301(3) 0.51615(19)
H16_2 H 0.8530 0.8205 0.5638
C23_3 C 0.77457(19) 0.7828(2) 0.48232(15)
C24_3 C 0.7604(3) 0.7978(3) 0.4138(2)
H17_3 H 0.7178 0.7646 0.3873
C25_3 C 0.8058(3) 0.8599(3) 0.3812(2)
H18_3 H 0.7925 0.8692 0.3334
O7 O 0.46346(13) 0.25649(13) 0.67321(10)
O8 O 0.36077(13) 0.24236(12) 0.75216(10)
O9 O 0.14487(14) 0.50350(14) 0.76064(11)
O10 O 0.16641(13) 0.58724(13) 0.67221(10)
O11 O 0.49279(13) 0.55992(13) 0.63445(11)
C26 C 0.40247(18) 0.28319(18) 0.70920(14)
C27 C 0.38031(18) 0.37359(18) 0.69888(13)
C28 C 0.29823(19) 0.40794(19) 0.71513(13)
H19 H 0.2537 0.3749 0.7354
C29 C 0.28121(19) 0.49137(18) 0.70161(14)
C30 C 0.34753(19) 0.54030(19) 0.67452(14)
H20 H 0.3359 0.5971 0.6656
C31 C 0.43104(19) 0.50616(19) 0.66046(14)
C32 C 0.44655(19) 0.42276(19) 0.67108(14)
H21 H 0.5025 0.3989 0.6594
C33 C 0.19042(19) 0.52999(19) 0.71280(15)
C34_2 C 0.5797(2) 0.5257(2) 0.61874(17)
H22_2 H 0.6143 0.5076 0.6615
H23 H 0.5706 0.4775 0.5878
C35_2 C 0.63123(19) 0.5925(2) 0.58405(16)
C36_2 C 0.6153(3) 0.6078(3) 0.51648(19)
H24_3 H 0.5715 0.5754 0.4904
C37_3 C 0.6612(3) 0.6699(3) 0.48385(19)
H25_3 H 0.6470 0.6795 0.4362
C38_2 C 0.72543(19) 0.7172(2) 0.51768(15)
C39_2 C 0.7396(3) 0.7022(3) 0.5862(2)
H26_2 H 0.7822 0.7354 0.6127
C40_2 C 0.6942(3) 0.6401(3) 0.6188(2)
H27_2 H 0.7075 0.6308 0.6666
Co4 Co 0.06308(3) 0.67028(2) 0.67240(2)
Co5 Co 0.56308(3) 0.17028(2) 0.67240(2)
Co6 Co 0.43692(3) 0.17028(2) 0.82760(2)
H15_3 H 0.0715 0.9246 0.9904
C22_3 C 0.1612(3) 0.8301(3) 0.98385(19)
H16_3 H 0.1470 0.8205 0.9362
O7_2 O 0.53654(13) 0.25649(13) 0.82679(10)
O8_2 O 0.63923(13) 0.24236(12) 0.74784(10)
O9_2 O 0.85513(14) 0.50350(14) 0.73936(11)
O10_2 O 0.83359(13) 0.58724(13) 0.82779(10)
O11_2 O 0.50721(13) 0.55992(13) 0.86555(11)
C26_2 C 0.59753(18) 0.28319(18) 0.79080(14)
C27_2 C 0.61969(18) 0.37359(18) 0.80112(13)
C28_2 C 0.70177(19) 0.40794(19) 0.78487(13)
H19_2 H 0.7463 0.3749 0.7646
C29_2 C 0.71879(19) 0.49137(18) 0.79839(14)
C30_2 C 0.65247(19) 0.54030(19) 0.82548(14)
H20_2 H 0.6641 0.5971 0.8344
C31_2 C 0.56896(19) 0.50616(19) 0.83954(14)
C32_2 C 0.55345(19) 0.42276(19) 0.82892(14)
H21_2 H 0.4975 0.3989 0.8406
C33_2 C 0.80958(19) 0.52999(19) 0.78720(15)
C34_3 C 0.4203(2) 0.5257(2) 0.88126(17)
H22_3 H 0.3857 0.5076 0.8385
H23_2 H 0.4294 0.4775 0.9122
C35_3 C 0.36877(19) 0.5925(2) 0.91595(16)
C36_3 C 0.3847(3) 0.6078(3) 0.98352(19)
C38_3 C 0.27457(19) 0.7172(2) 0.98232(15)
C39_3 C 0.2604(3) 0.7022(3) 0.9138(2)
H26_3 H 0.2178 0.7354 0.8873
C40_3 C 0.3058(3) 0.6401(3) 0.8812(2)
H27_3 H 0.2925 0.6308 0.8334
Co4_2 Co 0.93692(3) 0.67028(2) 0.82760(2)
H21_3 H 0.0025 0.8989 0.6594
H23_3 H 0.0706 0.9775 0.5878
O9_3 O 0.64487(14) 0.00350(14) 0.76064(11)
O10_3 O 0.66641(13) 0.08724(13) 0.67221(10)
O11_3 O 0.99279(13) 0.05992(13) 0.63445(11)
C30_3 C 0.84753(19) 0.04030(19) 0.67452(14)
H20_3 H 0.8359 0.0971 0.6656
C31_3 C 0.93104(19) 0.00616(19) 0.66046(14)
C33_3 C 0.69042(19) 0.02999(19) 0.71280(15)
O7_3 O 0.96346(13) 0.75649(13) 0.67321(10)
O8_3 O 0.86077(13) 0.74236(12) 0.75216(10)
C26_3 C 0.90247(18) 0.78319(18) 0.70920(14)
C27_3 C 0.88031(18) 0.87359(18) 0.69888(13)
C28_3 C 0.79823(19) 0.90794(19) 0.71513(13)
H19_3 H 0.7537 0.8749 0.7354
C29_3 C 0.78121(19) 0.99137(18) 0.70161(14)
C32_3 C 0.94655(19) 0.92276(19) 0.67108(14)
O9_4 O 0.35513(14) 0.00350(14) 0.73936(11)
O10_4 O 0.33359(13) 0.08724(13) 0.82779(10)
O11_4 O 0.00721(13) 0.05992(13) 0.86555(11)
C30_4 C 0.15247(19) 0.04030(19) 0.82548(14)
H20_4 H 0.1641 0.0971 0.8344
C31_4 C 0.06896(19) 0.00616(19) 0.83954(14)
C33_4 C 0.30958(19) 0.02999(19) 0.78720(15)
O7_4 O 0.03654(13) 0.75649(13) 0.82679(10)
O8_4 O 0.13923(13) 0.74236(12) 0.74784(10)
C26_4 C 0.09753(18) 0.78319(18) 0.79080(14)
C27_4 C 0.11969(18) 0.87359(18) 0.80112(13)
C28_4 C 0.20177(19) 0.90794(19) 0.78487(13)
H19_4 H 0.2463 0.8749 0.7646
C29_4 C 0.21879(19) 0.99137(18) 0.79839(14)
C32_4 C 0.05345(19) 0.92276(19) 0.82892(14)
H21_4 H 0.9975 0.8989 0.8406
H23_4 H 0.9294 0.9775 0.9122
O2_4 O 0.0000 0.59672(17) 0.7500
N1_3 N 0.12061(17) 0.74044(17) 0.59426(12)
C1_3 C 0.1851(2) 0.7980(2) 0.60630(19)
H2_3 H 0.2132 0.8031 0.6515
C2_3 C 0.2125(3) 0.8504(3) 0.5552(2)
H3_3 H 0.2586 0.8907 0.5651
C3_3 C 0.1721(4) 0.8427(3) 0.4909(2)
H4_3 H 0.1895 0.8779 0.4551
C4_3 C 0.1058(3) 0.7839(3) 0.4775(2)
H5_3 H 0.0770 0.7786 0.4325
C5_3 C 0.0811(2) 0.7321(2) 0.53054(16)
C6_3 C 0.0121(2) 0.6663(2) 0.52177(16)
H28_3 H 0.0456 0.5618 0.7725
N4_3 N 0.00516(17) 0.62438(17) 0.91998(13)
C49_3 C 0.1134(3) 0.5417(3) 0.9868(2)
H35_2 H 0.1565 0.4978 0.9884
C50_3 C 0.0671(2) 0.5643(2) 0.92533(19)
H36_3 H 0.0804 0.5354 0.8847
O2_5 O 1.0000 0.59672(17) 0.7500
H1_3 H 0.9544 0.5618 0.7275
N2_3 N 0.99484(17) 0.62438(17) 0.58002(13)
C7_3 C 0.9678(3) 0.6470(3) 0.4588(2)
H6_3 H 0.9807 0.6768 0.4186
C8_3 C 0.9044(3) 0.5836(3) 0.4552(2)
H7_3 H 0.8735 0.5696 0.4123
C9_3 C 0.8866(3) 0.5417(3) 0.5132(2)
H8_2 H 0.8435 0.4978 0.5116
C10_3 C 0.9329(2) 0.5643(2) 0.57467(19)
H9_3 H 0.9196 0.5354 0.6153
N3_3 N 0.87939(17) 0.74044(17) 0.90574(12)
C41_3 C 0.8149(2) 0.7980(2) 0.89370(19)
H29_3 H 0.7868 0.8031 0.8485
C42_3 C 0.7875(3) 0.8504(3) 0.9448(2)
H30_3 H 0.7414 0.8907 0.9349
C45_3 C 0.9189(2) 0.7321(2) 0.96946(16)
C46_3 C 0.9879(2) 0.6663(2) 0.97823(16)
O2_6 O 0.5000 0.09672(17) 0.7500
H1_4 H 0.4544 0.0618 0.7275
N1_4 N 0.62061(17) 0.24044(17) 0.59426(12)
N2_4 N 0.49484(17) 0.12438(17) 0.58002(13)
C1_4 C 0.6851(2) 0.2980(2) 0.60630(19)
H2_4 H 0.7132 0.3031 0.6515
C2_4 C 0.7125(3) 0.3504(3) 0.5552(2)
H3_4 H 0.7586 0.3907 0.5651
C3_4 C 0.6721(4) 0.3427(3) 0.4909(2)
H4_4 H 0.6895 0.3779 0.4551
C4_4 C 0.6058(3) 0.2839(3) 0.4775(2)
H5_4 H 0.5770 0.2786 0.4325
C5_4 C 0.5811(2) 0.2321(2) 0.53054(16)
C6_4 C 0.5121(2) 0.1663(2) 0.52177(16)
C7_4 C 0.4678(3) 0.1470(3) 0.4588(2)
H6_4 H 0.4807 0.1768 0.4186
C8_4 C 0.4044(3) 0.0836(3) 0.4552(2)
H7_4 H 0.3735 0.0696 0.4123
C9_4 C 0.3866(3) 0.0417(3) 0.5132(2)
C10_4 C 0.4329(2) 0.0643(2) 0.57467(19)
H9_4 H 0.4196 0.0354 0.6153
H28_4 H 0.5456 0.0618 0.7725
N3_4 N 0.37939(17) 0.24044(17) 0.90574(12)
N4_4 N 0.50516(17) 0.12438(17) 0.91998(13)
C41_4 C 0.3149(2) 0.2980(2) 0.89370(19)
H29_4 H 0.2868 0.3031 0.8485
C42_4 C 0.2875(3) 0.3504(3) 0.9448(2)
H30_4 H 0.2414 0.3907 0.9349
C45_4 C 0.4189(2) 0.2321(2) 0.96946(16)
C46_4 C 0.4879(2) 0.1663(2) 0.97823(16)
C49_4 C 0.6134(3) 0.0417(3) 0.9868(2)
C50_4 C 0.5671(2) 0.0643(2) 0.92533(19)
H36_4 H 0.5804 0.0354 0.8847
C19_4 C 0.0797(2) 0.9743(2) 0.11874(17)
H13_4 H 0.1143 0.9924 0.1615
C20_4 C 0.13123(19) 0.9075(2) 0.08405(16)
C21_4 C 0.1153(3) 0.8922(3) 0.01648(19)
C23_4 C 0.22543(19) 0.7828(2) 0.01768(15)
C24_4 C 0.2396(3) 0.7978(3) 0.0862(2)
H17_4 H 0.2822 0.7646 0.1127
C25_4 C 0.1942(3) 0.8599(3) 0.1188(2)
H18_4 H 0.2075 0.8692 0.1666
H24_4 H 0.4285 0.5754 0.0096
C37_4 C 0.3388(3) 0.6699(3) 0.01615(19)
H25_4 H 0.3530 0.6795 0.0638
C43_2 C 0.3279(4) 0.3427(3) 0.0091(2)
H31_2 H 0.3105 0.3779 0.0449
C44_2 C 0.3942(3) 0.2839(3) 0.0225(2)
H32_2 H 0.4230 0.2786 0.0675
C47_2 C 0.5322(3) 0.1470(3) 0.0412(2)
H33_2 H 0.5193 0.1768 0.0814
C48_2 C 0.5956(3) 0.0836(3) 0.0448(2)
H34_2 H 0.6265 0.0696 0.0877
H8_3 H 0.6565 0.0022 0.4884
H35_3 H 0.3435 0.0022 0.0116
C43_3 C 0.6721(4) 0.6573(3) 0.9909(2)
H31_3 H 0.6895 0.6221 0.9551
C44_3 C 0.6058(3) 0.7161(3) 0.9775(2)
H32_3 H 0.5770 0.7214 0.9325
C47_3 C 0.4678(3) 0.8530(3) 0.9588(2)
H33_3 H 0.4807 0.8232 0.9186
C48_3 C 0.4044(3) 0.9164(3) 0.9552(2)
H34_3 H 0.3735 0.9304 0.9123
H15_4 H 0.5715 0.4246 0.9904
C22_4 C 0.6612(3) 0.3301(3) 0.98385(19)
H16_4 H 0.6470 0.3205 0.9362
C34_4 C 0.9203(2) 0.0257(2) 0.88126(17)
H22_4 H 0.8857 0.0076 0.8385
C35_4 C 0.86877(19) 0.0925(2) 0.91595(16)
C36_4 C 0.8847(3) 0.1078(3) 0.98352(19)
C38_4 C 0.77457(19) 0.2172(2) 0.98232(15)
C39_4 C 0.7604(3) 0.2022(3) 0.9138(2)
H26_4 H 0.7178 0.2354 0.8873
C40_4 C 0.8058(3) 0.1401(3) 0.8812(2)
H27_4 H 0.7925 0.1308 0.8334
C47_4 C 0.0322(3) 0.6470(3) 0.0412(2)
H33_4 H 0.0193 0.6768 0.0814
C48_4 C 0.0956(3) 0.5836(3) 0.0448(2)
H34_4 H 0.1265 0.5696 0.0877
C43_4 C 0.8279(4) 0.8427(3) 0.0091(2)
H31_4 H 0.8105 0.8779 0.0449
C44_4 C 0.8942(3) 0.7839(3) 0.0225(2)
H32_4 H 0.9230 0.7786 0.0675
H8_4 H 0.3435 0.9978 0.5116
H35_4 H 0.6565 0.9978 0.9884
loop_
_geom_bond_atom_site_label_1
_geom_bond_atom_site_label_2
_geom_bond_site_symmetry_1
_geom_bond_site_symmetry_2
O1 C11 1_555 1_555
H1 O2 1_555 1_555
O3 C11 1_555 1_555
H6 C7 1_555 1_555
C8 C7 1_555 1_555
H7 C8 1_555 1_555
C9 C8 1_555 1_555
H8 C9 1_555 1_555
C10 N2 1_555 1_555
H9 C10 1_555 1_555
C11 C12 1_555 1_555
C12 C13 1_555 1_555
C13 H10 1_555 1_555
C14 C13 1_555 1_555
C17 C12 1_555 1_555
Co2 O2 1_555 1_555
N3 Co2 1_555 1_555
C41 N3 1_555 1_555
H29 C41 1_555 1_555
C42 C41 1_555 1_555
H30 C42 1_555 1_555
C45 N3 1_555 1_555
O15 Co2 1_555 1_555
O3 Co2 1_555 1_555
C9 C10 1_555 1_555
C45 C46 1_555 1_555
O4 C18 1_555 1_555
O5 C18 1_555 1_555
O6 C16 1_555 1_555
H11 C15 1_555 1_555
C16 C15 1_555 1_555
Co3 O5 1_555 1_555
O2_2 Co1 1_555 1_555
N1 Co1 1_555 1_555
C1 N1 1_555 1_555
H2 C1 1_555 1_555
C2 C1 1_555 1_555
H3 C2 1_555 1_555
C3 C2 1_555 1_555
H4 C3 1_555 1_555
C4 C3 1_555 1_555
H5 C4 1_555 1_555
C5 N1 1_555 1_555
H28 O2_2 1_555 1_555
H35 C49 1_555 1_555
C50 N4 1_555 1_555
H36 C50 1_555 1_555
O13 Co1 1_555 1_555
O14 Co1 1_555 1_555
C4 C5 1_555 1_555
C5 C6 1_555 1_555
C49 C50 1_555 1_555
O12 C11_2 1_555 1_555
O13 C11_2 1_555 1_555
C11_2 C12_2 1_555 1_555
C12_2 C13_2 1_555 1_555
C13_2 H10_2 1_555 1_555
C14_2 C13_2 1_555 1_555
C17_2 C12_2 1_555 1_555
O4_2 C18_2 1_555 1_555
O5_2 C18_2 1_555 1_555
O6_2 C16_2 1_555 1_555
H11_2 C15_2 1_555 1_555
C16_2 C15_2 1_555 1_555
Co3_2 O5_2 1_555 1_555
Co3 O1_2 1_555 1_555
O1_2 C11_3 1_555 1_555
O2_3 Co3 1_555 1_555
H1_2 O2_3 1_555 1_555
O3_2 C11_3 1_555 1_555
O4_3 C18_3 1_555 1_555
O14 C18_3 1_555 1_555
O6_3 C16_3 1_555 1_555
N1_2 Co3 1_555 1_555
N2_2 Co3 1_555 1_555
C1_2 N1_2 1_555 1_555
H2_2 C1_2 1_555 1_555
C2_2 C1_2 1_555 1_555
H3_2 C2_2 1_555 1_555
C3_2 C2_2 1_555 1_555
H4_2 C3_2 1_555 1_555
C4_2 C3_2 1_555 1_555
H5_2 C4_2 1_555 1_555
C5_2 N1_2 1_555 1_555
C6_2 N2_2 1_555 1_555
C7_2 C6_2 1_555 1_555
H6_2 C7_2 1_555 1_555
C8_2 C7_2 1_555 1_555
H7_2 C8_2 1_555 1_555
C9_2 C8_2 1_555 1_555
C10_2 N2_2 1_555 1_555
H9_2 C10_2 1_555 1_555
C11_3 C12_3 1_555 1_555
C12_3 C13_3 1_555 1_555
C13_3 H10_3 1_555 1_555
C14_3 C13_3 1_555 1_555
C15_3 C14_3 1_555 1_555
H11_3 C15_3 1_555 1_555
C16_3 C15_3 1_555 1_555
C17_3 C12_3 1_555 1_555
H12_3 C17_3 1_555 1_555
C18_3 C14_3 1_555 1_555
C19 O6_3 1_555 1_555
H13 C19 1_555 1_555
H14_3 C19 1_555 1_555
C20 C19 1_555 1_555
C21 C20 1_555 1_555
H15 C21 1_555 1_555
C22 C21 1_555 1_555
H16 C22 1_555 1_555
C23 C22 1_555 1_555
C24 C23 1_555 1_555
H17 C24 1_555 1_555
C25 C20 1_555 1_555
H18 C25 1_555 1_555
H22 C34 1_555 1_555
C35 C34 1_555 1_555
C36 C35 1_555 1_555
H24 C36 1_555 1_555
C37 C36 1_555 1_555
H25 C37 1_555 1_555
C38 C23 1_555 1_555
C39 C38 1_555 1_555
H26 C39 1_555 1_555
C40 C35 1_555 1_555
H27 C40 1_555 1_555
H28_2 O2_3 1_555 1_555
Co3_2 O2_3 1_555 1_555
N3_2 Co3_2 1_555 1_555
N4_2 Co3_2 1_555 1_555
C41_2 N3_2 1_555 1_555
H29_2 C41_2 1_555 1_555
C42_2 C41_2 1_555 1_555
H30_2 C42_2 1_555 1_555
C45_2 N3_2 1_555 1_555
C46_2 N4_2 1_555 1_555
C50_2 N4_2 1_555 1_555
H36_2 C50_2 1_555 1_555
O12_2 Co3_2 1_555 1_555
O13_2 Co3 1_555 1_555
O3_2 Co3_2 1_555 1_555
C4_2 C5_2 1_555 1_555
C5_2 C6_2 1_555 1_555
C9_2 C10_2 1_555 1_555
C16_3 C17_3 1_555 1_555
C24 C25 1_555 1_555
C37 C38 1_555 1_555
C39 C40 1_555 1_555
C45_2 C46_2 1_555 1_555
C49_2 C50_2 1_555 1_555
O12_2 C11_4 1_555 1_555
O13_2 C11_4 1_555 1_555
O4_4 C18_4 1_555 1_555
O15 C18_4 1_555 1_555
O6_4 C16_4 1_555 1_555
C11_4 C12_4 1_555 1_555
C12_4 C13_4 1_555 1_555
C13_4 H10_4 1_555 1_555
C14_4 C13_4 1_555 1_555
C15_4 C14_4 1_555 1_555
H11_4 C15_4 1_555 1_555
C16_4 C15_4 1_555 1_555
C17_4 C12_4 1_555 1_555
H12_4 C17_4 1_555 1_555
C18_4 C14_4 1_555 1_555
C19_2 O6_4 1_555 1_555
H13_2 C19_2 1_555 1_555
H14_4 C19_2 1_555 1_555
C20_2 C19_2 1_555 1_555
C21_2 C20_2 1_555 1_555
C24_2 C23_2 1_555 1_555
H17_2 C24_2 1_555 1_555
C25_2 C20_2 1_555 1_555
H18_2 C25_2 1_555 1_555
H25_2 C37_2 1_555 1_555
C16_4 C17_4 1_555 1_555
C24_2 C25_2 1_555 1_555
H31 C43 1_555 1_555
C44 C43 1_555 1_555
H32 C44 1_555 1_555
H33 C47 1_555 1_555
C48 C47 1_555 1_555
H34 C48 1_555 1_555
H13_3 C19_3 1_555 1_555
C20_3 C19_3 1_555 1_555
C21_3 C20_3 1_555 1_555
H15_2 C21_3 1_555 1_555
C22_2 C21_3 1_555 1_555
H16_2 C22_2 1_555 1_555
C23_3 C22_2 1_555 1_555
C24_3 C23_3 1_555 1_555
H17_3 C24_3 1_555 1_555
C25_3 C20_3 1_555 1_555
H18_3 C25_3 1_555 1_555
O7 C26 1_555 1_555
O8 C26 1_555 1_555
O9 C33 1_555 1_555
O10 C33 1_555 1_555
O11 C31 1_555 1_555
C26 C27 1_555 1_555
C27 C28 1_555 1_555
C28 H19 1_555 1_555
C29 C28 1_555 1_555
C30 C29 1_555 1_555
H20 C30 1_555 1_555
C31 C30 1_555 1_555
C32 C27 1_555 1_555
H21 C32 1_555 1_555
C33 C29 1_555 1_555
C34_2 O11 1_555 1_555
H22_2 C34_2 1_555 1_555
H23 C34_2 1_555 1_555
C35_2 C34_2 1_555 1_555
C36_2 C35_2 1_555 1_555
H24_3 C36_2 1_555 1_555
C37_3 C36_2 1_555 1_555
H25_3 C37_3 1_555 1_555
C38_2 C23_3 1_555 1_555
C39_2 C38_2 1_555 1_555
H26_2 C39_2 1_555 1_555
C40_2 C35_2 1_555 1_555
H27_2 C40_2 1_555 1_555
Co4 O10 1_555 1_555
Co5 O7 1_555 1_555
Co6 O8 1_555 1_555
C24_3 C25_3 1_555 1_555
C31 C32 1_555 1_555
C37_3 C38_2 1_555 1_555
C39_2 C40_2 1_555 1_555
H16_3 C22_3 1_555 1_555
O7_2 C26_2 1_555 1_555
O8_2 C26_2 1_555 1_555
O9_2 C33_2 1_555 1_555
O10_2 C33_2 1_555 1_555
O11_2 C31_2 1_555 1_555
C26_2 C27_2 1_555 1_555
C27_2 C28_2 1_555 1_555
C28_2 H19_2 1_555 1_555
C29_2 C28_2 1_555 1_555
C30_2 C29_2 1_555 1_555
H20_2 C30_2 1_555 1_555
C31_2 C30_2 1_555 1_555
C32_2 C27_2 1_555 1_555
H21_2 C32_2 1_555 1_555
C33_2 C29_2 1_555 1_555
C34_3 O11_2 1_555 1_555
H22_3 C34_3 1_555 1_555
H23_2 C34_3 1_555 1_555
C35_3 C34_3 1_555 1_555
C36_3 C35_3 1_555 1_555
C39_3 C38_3 1_555 1_555
H26_3 C39_3 1_555 1_555
C40_3 C35_3 1_555 1_555
H27_3 C40_3 1_555 1_555
Co4_2 O10_2 1_555 1_555
Co6 O7_2 1_555 1_555
Co5 O8_2 1_555 1_555
C31_2 C32_2 1_555 1_555
C39_3 C40_3 1_555 1_555
O9_3 C33_3 1_555 1_555
O10_3 C33_3 1_555 1_555
O11_3 C31_3 1_555 1_555
H20_3 C30_3 1_555 1_555
C31_3 C30_3 1_555 1_555
Co5 O10_3 1_555 1_555
O7_3 C26_3 1_555 1_555
O8_3 C26_3 1_555 1_555
C26_3 C27_3 1_555 1_555
C27_3 C28_3 1_555 1_555
C28_3 H19_3 1_555 1_555
C29_3 C28_3 1_555 1_555
C32_3 C27_3 1_555 1_555
Co4_2 O8_3 1_555 1_555
O9_4 C33_4 1_555 1_555
O10_4 C33_4 1_555 1_555
O11_4 C31_4 1_555 1_555
H20_4 C30_4 1_555 1_555
C31_4 C30_4 1_555 1_555
Co6 O10_4 1_555 1_555
O7_4 C26_4 1_555 1_555
O8_4 C26_4 1_555 1_555
C26_4 C27_4 1_555 1_555
C27_4 C28_4 1_555 1_555
C28_4 H19_4 1_555 1_555
C29_4 C28_4 1_555 1_555
C32_4 C27_4 1_555 1_555
Co4 O8_4 1_555 1_555
O2_4 Co4 1_555 1_555
N1_3 Co4 1_555 1_555
C1_3 N1_3 1_555 1_555
H2_3 C1_3 1_555 1_555
C2_3 C1_3 1_555 1_555
H3_3 C2_3 1_555 1_555
C3_3 C2_3 1_555 1_555
H4_3 C3_3 1_555 1_555
C4_3 C3_3 1_555 1_555
H5_3 C4_3 1_555 1_555
C5_3 N1_3 1_555 1_555
H28_3 O2_4 1_555 1_555
H35_2 C49_3 1_555 1_555
C50_3 N4_3 1_555 1_555
H36_3 C50_3 1_555 1_555
C4_3 C5_3 1_555 1_555
C5_3 C6_3 1_555 1_555
C49_3 C50_3 1_555 1_555
H1_3 O2_5 1_555 1_555
H6_3 C7_3 1_555 1_555
C8_3 C7_3 1_555 1_555
H7_3 C8_3 1_555 1_555
C9_3 C8_3 1_555 1_555
H8_2 C9_3 1_555 1_555
C10_3 N2_3 1_555 1_555
H9_3 C10_3 1_555 1_555
Co4_2 O2_5 1_555 1_555
N3_3 Co4_2 1_555 1_555
C41_3 N3_3 1_555 1_555
H29_3 C41_3 1_555 1_555
C42_3 C41_3 1_555 1_555
H30_3 C42_3 1_555 1_555
C45_3 N3_3 1_555 1_555
C9_3 C10_3 1_555 1_555
C45_3 C46_3 1_555 1_555
O2_6 Co5 1_555 1_555
H1_4 O2_6 1_555 1_555
N1_4 Co5 1_555 1_555
N2_4 Co5 1_555 1_555
C1_4 N1_4 1_555 1_555
H2_4 C1_4 1_555 1_555
C2_4 C1_4 1_555 1_555
H3_4 C2_4 1_555 1_555
C3_4 C2_4 1_555 1_555
H4_4 C3_4 1_555 1_555
C4_4 C3_4 1_555 1_555
H5_4 C4_4 1_555 1_555
C5_4 N1_4 1_555 1_555
C6_4 N2_4 1_555 1_555
C7_4 C6_4 1_555 1_555
H6_4 C7_4 1_555 1_555
C8_4 C7_4 1_555 1_555
H7_4 C8_4 1_555 1_555
C9_4 C8_4 1_555 1_555
C10_4 N2_4 1_555 1_555
H9_4 C10_4 1_555 1_555
H28_4 O2_6 1_555 1_555
Co6 O2_6 1_555 1_555
N3_4 Co6 1_555 1_555
N4_4 Co6 1_555 1_555
C41_4 N3_4 1_555 1_555
H29_4 C41_4 1_555 1_555
C42_4 C41_4 1_555 1_555
H30_4 C42_4 1_555 1_555
C45_4 N3_4 1_555 1_555
C46_4 N4_4 1_555 1_555
C50_4 N4_4 1_555 1_555
H36_4 C50_4 1_555 1_555
C4_4 C5_4 1_555 1_555
C5_4 C6_4 1_555 1_555
C9_4 C10_4 1_555 1_555
C45_4 C46_4 1_555 1_555
C49_4 C50_4 1_555 1_555
H13_4 C19_4 1_555 1_555
C20_4 C19_4 1_555 1_555
C21_4 C20_4 1_555 1_555
C24_4 C23_4 1_555 1_555
H17_4 C24_4 1_555 1_555
C25_4 C20_4 1_555 1_555
H18_4 C25_4 1_555 1_555
H25_4 C37_4 1_555 1_555
C24_4 C25_4 1_555 1_555
H31_2 C43_2 1_555 1_555
C44_2 C43_2 1_555 1_555
H32_2 C44_2 1_555 1_555
H33_2 C47_2 1_555 1_555
C48_2 C47_2 1_555 1_555
H34_2 C48_2 1_555 1_555
H31_3 C43_3 1_555 1_555
C44_3 C43_3 1_555 1_555
H32_3 C44_3 1_555 1_555
H33_3 C47_3 1_555 1_555
C48_3 C47_3 1_555 1_555
H34_3 C48_3 1_555 1_555
H16_4 C22_4 1_555 1_555
H22_4 C34_4 1_555 1_555
C35_4 C34_4 1_555 1_555
C36_4 C35_4 1_555 1_555
C39_4 C38_4 1_555 1_555
H26_4 C39_4 1_555 1_555
C40_4 C35_4 1_555 1_555
H27_4 C40_4 1_555 1_555
C39_4 C40_4 1_555 1_555
H33_4 C47_4 1_555 1_555
C48_4 C47_4 1_555 1_555
H34_4 C48_4 1_555 1_555
H31_4 C43_4 1_555 1_555
C44_4 C43_4 1_555 1_555
H32_4 C44_4 1_555 1_555

#END
