
###############################################################################
#
# This file contains modified crystal structure data generated from the
# MOF subset of the Cambridge Structural Database (CSD) v543 
# hosted by the Cambridge Crystallographic Data Centre (CCDC).
#
# This work is licensed under the Creative Commons
# Attribution-NonCommercial-ShareAlike 4.0 International License.
# To view a copy of this license, visit
# http://creativecommons.org/licenses/by-nc-sa/4.0/
# or send a letter to
# Creative Commons, PO Box 1866, Mountain View, CA 94042, USA.
#
# CIF created using the CSD Python API on 29 September 2022
# The structure has been converted into the P1 space group
# The structure has a 3D framework
# The original CSD entry ZUJKAS is in the monoclinic crystal system
# The framework has been calculated to contain at least 10.0% void space
# The void calculation uses a probe of radius 1.32A, grid spacing 0.4
#
###############################################################################

data_ZUJKAS
_chemical_formula_moiety         '(C360 H264 N11 O46 Zn11)n'
_symmetry_cell_setting           triclinic
_symmetry_space_group_name_H-M   'P 1'
_symmetry_Int_Tables_number      1
_space_group_name_Hall           'P 1'
loop_
_symmetry_equiv_pos_site_id
_symmetry_equiv_pos_as_xyz
1 x,y,z
_cell_length_a                   18.261(5)
_cell_length_b                   20.045(5)
_cell_length_c                   33.017(5)
_cell_angle_alpha                90
_cell_angle_beta                 100.124(5)
_cell_angle_gamma                90
_cell_volume                     11897.4
loop_
_atom_site_label
_atom_site_type_symbol
_atom_site_fract_x
_atom_site_fract_y
_atom_site_fract_z
Zn7 Zn 0.081736(16) 0.002921(12) 0.007729(8)
Zn1 Zn 0.081736(16) 0.497079(12) 0.507729(8)
O2 O 0.05076(12) 0.43613(10) 0.45832(6)
O3 O 0.06301(11) 0.07628(9) 0.04646(6)
N1 N 0.19223(13) 0.49427(10) 0.50854(7)
C6 C 0.05073(18) 0.32566(14) 0.35137(9)
H3 H 0.0932 0.3036 0.3466
C7 C 0.05145(18) 0.35727(15) 0.38876(9)
H4 H 0.0944 0.3570 0.4086
C10 C 0.00167(16) 0.22602(13) 0.27684(8)
C11 C 0.01335(18) 0.17885(14) 0.31360(8)
H6 H 0.0224 0.1346 0.3045
H8 H 0.0553 0.1935 0.3333
H10 H 0.0034 0.3522 0.1554
C15 C 0.00287(16) 0.20061(13) 0.23747(8)
H12 H 0.0130 0.1555 0.2348
C20 C 0.06106(17) 0.14412(14) 0.11941(9)
H15 H 0.1059 0.1261 0.1150
C21 C 0.05868(18) 0.17945(15) 0.15501(9)
H16 H 0.1021 0.1852 0.1742
C22 C 0.00030(16) 0.09266(12) 0.05364(8)
C23 C 0.21767(17) 0.48609(15) 0.47293(9)
H17 H 0.1834 0.4786 0.4490
C24 C 0.29102(17) 0.48832(14) 0.47040(10)
H18 H 0.3054 0.4839 0.4449
C25 C 0.34416(18) 0.49702(14) 0.50482(10)
C26 C 0.3179(2) 0.5079(2) 0.54093(12)
H19 H 0.3512 0.5176 0.5649
C27 C 0.2435(2) 0.5046(2) 0.54189(11)
H20 H 0.2280 0.5099 0.5671
C28 C 0.42383(19) 0.49911(16) 0.50252(11)
C29 C 0.4499(2) 0.4768(4) 0.46975(15)
H21 H 0.4169 0.4571 0.4484
C30 C 0.4762(3) 0.5181(4) 0.53361(17)
H22 H 0.4623 0.5284 0.5587
N2 N 0.80777(13) 0.50573(10) 0.49146(7)
C31 C 0.78233(17) 0.51391(15) 0.52707(9)
H23 H 0.8166 0.5214 0.5510
C32 C 0.70898(17) 0.51168(14) 0.52960(10)
H24 H 0.6946 0.5161 0.5551
C33 C 0.65584(18) 0.50298(14) 0.49518(10)
C34 C 0.6821(2) 0.4921(2) 0.45907(12)
H25 H 0.6488 0.4824 0.4351
C35 C 0.7565(2) 0.4954(2) 0.45811(11)
H26 H 0.7720 0.4901 0.4329
C36 C 0.57617(19) 0.50089(16) 0.49748(11)
C37 C 0.5501(2) 0.5232(4) 0.53025(15)
H27 H 0.5831 0.5429 0.5516
C38 C 0.5238(3) 0.4819(4) 0.46639(17)
H28 H 0.5377 0.4716 0.4413
O5 O 0.07338(12) 0.55878(9) 0.55515(5)
O8 O 0.06039(12) 0.92560(9) 0.96711(6)
C39 C 0.01136(18) 0.57547(13) 0.56359(8)
C40 C 0.01202(16) 0.61055(13) 0.60342(8)
C41 C 0.07490(18) 0.61116(14) 0.63337(8)
H29 H 0.1180 0.5906 0.6283
C42 C 0.07507(17) 0.64188(14) 0.67092(8)
H30 H 0.1180 0.6410 0.6908
C43 C 0.01286(17) 0.67365(13) 0.67927(8)
C46 C 0.01218(16) 0.70552(13) 0.71997(8)
C47 C 0.02616(16) 0.66622(12) 0.75534(8)
H33 H 0.0363 0.6211 0.7528
H35 H 0.0303 0.8212 0.6739
C50 C 0.02539(16) 0.69279(13) 0.79459(8)
C51 C 0.03937(18) 0.64786(13) 0.83129(8)
H37 H 0.0486 0.6034 0.8227
H39 H 0.0819 0.6635 0.8502
C52 C 0.01040(16) 0.76051(12) 0.79774(8)
C54 C 0.00728(16) 0.79363(12) 0.83738(8)
C55 C 0.07070(16) 0.80232(13) 0.86656(8)
H41 H 0.1154 0.7840 0.8621
C56 C 0.06874(17) 0.83820(13) 0.90253(9)
H42 H 0.1120 0.8442 0.9217
C57 C 0.00222(16) 0.86478(12) 0.90960(8)
Zn5 Zn 0.918264(16) 0.502921(12) 0.492271(8)
O10 O 0.06301(11) 0.42372(9) 0.54646(6)
O11 O 0.06039(12) 0.57440(9) 0.46711(6)
O1 O 0.92662(12) 0.44122(9) 0.44485(5)
O4 O 0.93961(12) 0.07440(9) 0.03289(6)
C1 C 0.98864(18) 0.42453(13) 0.43641(8)
C2 C 0.98798(16) 0.38945(13) 0.39658(8)
C3 C 0.92510(18) 0.38884(14) 0.36663(8)
H1 H 0.8820 0.4094 0.3717
C4 C 0.92493(17) 0.35812(14) 0.32908(8)
H2 H 0.8820 0.3590 0.3092
C5 C 0.98714(17) 0.32635(13) 0.32073(8)
C8 C 0.98782(16) 0.29448(13) 0.28003(8)
C9 C 0.97384(16) 0.33378(12) 0.24466(8)
H5 H 0.9637 0.3789 0.2472
H7 H 0.9697 0.1788 0.3261
C12 C 0.97461(16) 0.30721(13) 0.20541(8)
C13 C 0.96063(18) 0.35214(13) 0.16871(8)
H9 H 0.9514 0.3966 0.1773
H11 H 0.9181 0.3365 0.1498
C14 C 0.98960(16) 0.23949(12) 0.20226(8)
C16 C 0.99272(16) 0.20637(12) 0.16262(8)
C17 C 0.92930(16) 0.19768(13) 0.13344(8)
H13 H 0.8846 0.2160 0.1379
C18 C 0.93126(17) 0.16180(13) 0.09747(9)
H14 H 0.8880 0.1558 0.0783
C19 C 0.99778(16) 0.13522(12) 0.09040(8)
O6 O 0.94924(12) 0.56387(10) 0.54168(6)
O7 O 0.93699(11) 0.92372(9) 0.95354(6)
C44 C 0.94927(18) 0.67434(14) 0.64863(9)
H31 H 0.9068 0.6964 0.6534
C45 C 0.94855(18) 0.64273(15) 0.61124(9)
H32 H 0.9056 0.6430 0.5914
C48 C 0.99833(16) 0.77398(13) 0.72316(8)
C49 C 0.98665(18) 0.82115(14) 0.68640(8)
H34 H 0.9776 0.8654 0.6955
H36 H 0.9447 0.8065 0.6667
H38 H 0.9966 0.6478 0.8446
C53 C 0.99713(16) 0.79939(13) 0.76253(8)
H40 H 0.9870 0.8445 0.7652
C58 C 0.93894(17) 0.85588(14) 0.88059(9)
H43 H 0.8941 0.8739 0.8850
C59 C 0.94132(18) 0.82055(15) 0.84499(9)
H44 H 0.8979 0.8148 0.8258
C60 C 0.99970(16) 0.90734(12) 0.94636(8)
Zn4 Zn 0.918264(16) 0.997079(12) 0.992271(8)
O9 O 0.93699(11) 0.57628(9) 0.45354(6)
O12 O 0.93961(12) 0.42560(9) 0.53289(6)
N3 N 0.19223(13) 0.00573(10) 0.00854(7)
O6_2 O 0.05076(12) 0.06387(10) 0.95832(6)
C44_2 C 0.05073(18) 0.17434(14) 0.85137(9)
H31_2 H 0.0932 0.1964 0.8466
C45_2 C 0.05145(18) 0.14273(15) 0.88876(9)
H32_2 H 0.0944 0.1430 0.9086
C48_2 C 0.00167(16) 0.27398(13) 0.77684(8)
C49_2 C 0.01335(18) 0.32115(14) 0.81360(8)
H34_2 H 0.0224 0.3654 0.8045
H36_2 H 0.0553 0.3065 0.8333
H38_2 H 0.0034 0.1478 0.6554
C53_2 C 0.00287(16) 0.29939(13) 0.73747(8)
H40_2 H 0.0130 0.3445 0.7348
C58_2 C 0.06106(17) 0.35588(14) 0.61941(9)
H43_2 H 0.1059 0.3739 0.6150
C59_2 C 0.05868(18) 0.32055(15) 0.65501(9)
H44_2 H 0.1021 0.3148 0.6742
C60_2 C 0.00030(16) 0.40734(12) 0.55364(8)
O1_2 O 0.07338(12) 0.94122(9) 0.05515(5)
C1_2 C 0.01136(18) 0.92453(13) 0.06359(8)
C2_2 C 0.01202(16) 0.88945(13) 0.10342(8)
C3_2 C 0.07490(18) 0.88884(14) 0.13337(8)
H1_2 H 0.1180 0.9094 0.1283
C4_2 C 0.07507(17) 0.85812(14) 0.17092(8)
H2_2 H 0.1180 0.8590 0.1908
C5_2 C 0.01286(17) 0.82635(13) 0.17927(8)
C8_2 C 0.01218(16) 0.79448(13) 0.21997(8)
C9_2 C 0.02616(16) 0.83378(12) 0.25534(8)
H5_2 H 0.0363 0.8789 0.2528
H7_2 H 0.0303 0.6788 0.1739
C12_2 C 0.02539(16) 0.80721(13) 0.29459(8)
C13_2 C 0.03937(18) 0.85214(13) 0.33129(8)
H9_2 H 0.0486 0.8966 0.3227
H11_2 H 0.0819 0.8365 0.3502
C14_2 C 0.01040(16) 0.73949(12) 0.29774(8)
C16_2 C 0.00728(16) 0.70637(12) 0.33738(8)
C17_2 C 0.07070(16) 0.69768(13) 0.36656(8)
H13_2 H 0.1154 0.7160 0.3621
C18_2 C 0.06874(17) 0.66180(13) 0.40253(9)
H14_2 H 0.1120 0.6558 0.4217
C19_2 C 0.00222(16) 0.63522(12) 0.40960(8)
C33_2 C 0.34416(18) 0.00298(14) 0.00482(10)
C36_2 C 0.42383(19) 0.00089(16) 0.00252(11)
C26_2 C 0.6821(2) 0.0079(2) 0.95907(12)
H19_2 H 0.6488 0.0176 0.9351
C27_2 C 0.7565(2) 0.0046(2) 0.95811(11)
H20_2 H 0.7720 0.0099 0.9329
C30_2 C 0.5238(3) 0.0181(4) 0.96639(17)
H22_2 H 0.5377 0.0284 0.9413
C31_2 C 0.21767(17) 0.01391(15) 0.97293(9)
H23_2 H 0.1834 0.0214 0.9490
C32_2 C 0.29102(17) 0.01168(14) 0.97040(10)
H24_2 H 0.3054 0.0161 0.9449
C37_2 C 0.4499(2) 0.0232(4) 0.96975(15)
H27_2 H 0.4169 0.0429 0.9484
O5_2 O 0.92662(12) 0.05878(9) 0.94485(5)
C39_2 C 0.98864(18) 0.07547(13) 0.93641(8)
C40_2 C 0.98798(16) 0.11055(13) 0.89658(8)
C41_2 C 0.92510(18) 0.11116(14) 0.86663(8)
H29_2 H 0.8820 0.0906 0.8717
C42_2 C 0.92493(17) 0.14188(14) 0.82908(8)
H30_2 H 0.8820 0.1410 0.8092
C43_2 C 0.98714(17) 0.17365(13) 0.82073(8)
C46_2 C 0.98782(16) 0.20552(13) 0.78003(8)
C47_2 C 0.97384(16) 0.16622(12) 0.74466(8)
H33_2 H 0.9637 0.1211 0.7472
H35_2 H 0.9697 0.3212 0.8261
C50_2 C 0.97461(16) 0.19279(13) 0.70541(8)
C51_2 C 0.96063(18) 0.14786(13) 0.66871(8)
H37_2 H 0.9514 0.1034 0.6773
H39_2 H 0.9181 0.1635 0.6498
C52_2 C 0.98960(16) 0.26051(12) 0.70226(8)
C54_2 C 0.99272(16) 0.29363(12) 0.66262(8)
C55_2 C 0.92930(16) 0.30232(13) 0.63344(8)
H41_2 H 0.8846 0.2840 0.6379
C56_2 C 0.93126(17) 0.33820(13) 0.59747(9)
H42_2 H 0.8880 0.3442 0.5783
C57_2 C 0.99778(16) 0.36478(12) 0.59040(8)
O2_2 O 0.94924(12) 0.93613(10) 0.04168(6)
C6_2 C 0.94927(18) 0.82566(14) 0.14863(9)
H3_2 H 0.9068 0.8036 0.1534
C7_2 C 0.94855(18) 0.85727(15) 0.11124(9)
H4_2 H 0.9056 0.8570 0.0914
C10_2 C 0.99833(16) 0.72602(13) 0.22316(8)
C11_2 C 0.98665(18) 0.67885(14) 0.18640(8)
H6_2 H 0.9776 0.6346 0.1955
H8_2 H 0.9447 0.6935 0.1667
H10_2 H 0.9966 0.8522 0.3446
C15_2 C 0.99713(16) 0.70061(13) 0.26253(8)
H12_2 H 0.9870 0.6555 0.2652
C20_2 C 0.93894(17) 0.64412(14) 0.38059(9)
H15_2 H 0.8941 0.6261 0.3850
C21_2 C 0.94132(18) 0.67945(15) 0.34499(9)
H16_2 H 0.8979 0.6852 0.3258
C22_2 C 0.99970(16) 0.59266(12) 0.44636(8)
C23_2 C 0.78233(17) 0.98609(15) 0.02707(9)
H17_2 H 0.8166 0.9786 0.0510
C24_2 C 0.70898(17) 0.98832(14) 0.02960(10)
H18_2 H 0.6946 0.9839 0.0551
C29_2 C 0.5501(2) 0.9768(4) 0.03025(15)
H21_2 H 0.5831 0.9571 0.0516
C34_2 C 0.3179(2) 0.9921(2) 0.04093(12)
H25_2 H 0.3512 0.9824 0.0649
C35_2 C 0.2435(2) 0.9954(2) 0.04189(11)
H26_2 H 0.2280 0.9901 0.0671
C38_2 C 0.4762(3) 0.9819(4) 0.03361(17)
H28_2 H 0.4623 0.9716 0.0587
N1_2 N 0.80777(13) 0.99427(10) 0.99146(7)
C25_2 C 0.65584(18) 0.99702(14) 0.99518(10)
C28_2 C 0.57617(19) 0.99911(16) 0.99748(11)
N5 N 0.05634(12) 0.50424(9) 0.09899(6)
C105 C 0.02970(15) 0.52625(13) 0.13199(8)
H77 H 0.0626 0.5448 0.1538
C109 C 0.00724(16) 0.47844(15) 0.06789(9)
H80 H 0.0247 0.4629 0.0448
Zn10 Zn 0.167385(16) 0.504003(13) 0.100238(8)
Zn14 Zn 0.330222(17) 0.003973(13) 0.615556(9)
Zn9 Zn 0.330222(17) 0.496027(13) 0.115556(9)
O13 O 0.19105(11) 0.42812(9) 0.14246(6)
O14 O 0.31469(12) 0.42652(11) 0.15708(6)
O15 O 0.18755(11) 0.57787(9) 0.06136(6)
O16 O 0.31062(11) 0.56980(10) 0.07293(6)
O17 O 0.17298(11) 0.05908(9) 0.55368(5)
O18 O 0.29672(12) 0.06902(10) 0.56856(6)
N4 N 0.44072(13) 0.48981(10) 0.11641(7)
C61 C 0.25133(17) 0.41084(13) 0.16374(8)
C62 C 0.24871(17) 0.36970(14) 0.20161(8)
C63 C 0.18203(17) 0.34505(15) 0.20964(9)
H45 H 0.1386 0.3520 0.1907
C64 C 0.17902(18) 0.31061(15) 0.24501(9)
H46 H 0.1335 0.2944 0.2497
C65 C 0.24211(18) 0.29941(14) 0.27401(9)
C66 C 0.3101(2) 0.3253(2) 0.26595(11)
H47 H 0.3537 0.3190 0.2849
C67 C 0.3116(2) 0.3594(2) 0.23034(11)
H48 H 0.3567 0.3763 0.2254
C68 C 0.23956(17) 0.26751(15) 0.31455(9)
C69 C 0.25747(19) 0.30637(15) 0.34923(9)
H49 H 0.2712 0.3505 0.3462
C70 C 0.21804(18) 0.20067(15) 0.31759(9)
C71 C 0.1995(2) 0.15570(15) 0.28220(9)
H50 H 0.1845 0.1132 0.2914
H51 H 0.2423 0.1500 0.2693
H52 H 0.1595 0.1745 0.2628
C78 C 0.32093(17) 0.64884(15) 0.00554(9)
H58 H 0.3648 0.6363 0.0226
C79 C 0.25340(16) 0.63368(12) 0.01652(8)
C82 C 0.25006(17) 0.59099(12) 0.05338(8)
C83 C 0.23556(17) 0.07978(12) 0.54618(8)
C84 C 0.23351(17) 0.11861(13) 0.50758(8)
C85 C 0.16792(17) 0.12612(13) 0.47984(8)
H61 H 0.1236 0.1096 0.4861
C86 C 0.16839(18) 0.15867(14) 0.44225(8)
H62 H 0.1244 0.1629 0.4234
C87 C 0.23323(18) 0.18436(14) 0.43312(9)
C88 C 0.2986(2) 0.17696(18) 0.46116(10)
H63 H 0.3427 0.1940 0.4551
C89 C 0.29869(19) 0.14423(16) 0.49826(9)
H64 H 0.3429 0.1396 0.5169
C90 C 0.23461(17) 0.21580(14) 0.39226(9)
C91 C 0.21583(18) 0.17714(14) 0.35725(9)
H65 H 0.2010 0.1333 0.3602
C92 C 0.25587(19) 0.28245(15) 0.38855(9)
C93 C 0.2735(2) 0.32824(16) 0.42531(10)
H66 H 0.2690 0.3040 0.4498
H67 H 0.3233 0.3448 0.4274
H68 H 0.2393 0.3650 0.4220
C106 C 0.95558(15) 0.52225(13) 0.13462(9)
H78 H 0.9396 0.5374 0.1582
C107 C 0.90453(16) 0.49615(12) 0.10288(9)
C108 C 0.93281(17) 0.47391(16) 0.06861(9)
H79 H 0.9009 0.4560 0.0462
C110 C 0.82481(16) 0.49197(12) 0.10557(9)
C111 C 0.77110(17) 0.48934(13) 0.07011(9)
H81 H 0.7855 0.4886 0.0445
C112 C 0.80173(16) 0.49185(12) 0.14381(9)
H82 H 0.8369 0.4933 0.1679
C113 C 0.69604(17) 0.48778(14) 0.07281(10)
H83 H 0.6607 0.4868 0.0488
C114 C 0.67270(16) 0.48758(13) 0.11059(9)
C115 C 0.72732(16) 0.48958(12) 0.14585(9)
H84 H 0.7129 0.4894 0.1715
C116 C 0.59350(16) 0.48767(13) 0.11320(9)
C117 C 0.5654(2) 0.4838(3) 0.14840(12)
H85 H 0.5983 0.4796 0.1732
C118 C 0.4917(2) 0.4856(3) 0.14936(11)
H86 H 0.4766 0.4838 0.1748
C119 C 0.4648(2) 0.4933(3) 0.08113(12)
H87 H 0.4300 0.4936 0.0569
C120 C 0.5396(4) 0.4967(2) 0.07858(19)
H88 H 0.5537 0.5051 0.0533
O21 O 0.17298(11) 0.44092(9) 0.05368(5)
O22 O 0.29672(12) 0.43098(10) 0.06856(6)
O23 O 0.19586(12) 0.56743(10) 0.14864(6)
O24 O 0.31948(12) 0.56308(11) 0.16028(6)
O19 O 0.19586(12) 0.93257(10) 0.64864(6)
O20 O 0.31948(12) 0.93692(11) 0.66028(6)
C72 C 0.2794(2) 0.80207(15) 0.89966(10)
C73 C 0.2941(2) 0.84690(16) 0.93666(11)
H53 H 0.2935 0.8211 0.9611
H54 H 0.2562 0.8806 0.9343
H55 H 0.3418 0.8677 0.9382
C74 C 0.24518(17) 0.69585(14) 0.86822(8)
H56 H 0.2333 0.6512 0.8711
C75 C 0.26163(17) 0.73441(14) 0.90339(9)
C76 C 0.25894(17) 0.70316(13) 0.94401(8)
C77 C 0.32381(17) 0.68288(16) 0.96905(9)
H57 H 0.3695 0.6920 0.9615
C80 C 0.18868(17) 0.65429(14) 0.99150(8)
H59 H 0.1429 0.6455 0.9991
C81 C 0.19146(17) 0.68790(14) 0.95514(9)
H60 H 0.1475 0.7003 0.9381
C94 C 0.24545(17) 0.72024(15) 0.82904(9)
C95 C 0.2295(2) 0.67372(16) 0.79194(9)
H69 H 0.2327 0.6983 0.7674
H70 H 0.2653 0.6382 0.7952
H71 H 0.1804 0.6554 0.7899
C96 C 0.26278(18) 0.78774(15) 0.82571(9)
C97 C 0.27918(19) 0.82648(15) 0.86062(9)
H72 H 0.2907 0.8712 0.8577
C98 C 0.26212(18) 0.81841(16) 0.78443(9)
C99 C 0.19778(19) 0.82420(18) 0.75559(10)
H73 H 0.1541 0.8055 0.7612
C100 C 0.19630(19) 0.85658(18) 0.71898(10)
H74 H 0.1515 0.8613 0.7009
C101 C 0.26018(17) 0.88209(14) 0.70877(9)
C102 C 0.3258(2) 0.8745(2) 0.73599(11)
H75 H 0.3702 0.8893 0.7289
C103 C 0.3261(2) 0.8451(2) 0.77376(11)
H76 H 0.3704 0.8430 0.7926
C104 C 0.25858(17) 0.91998(13) 0.66953(8)
Zn12 Zn 0.167385(16) 0.995997(13) 0.600238(8)
N5_2 N 0.05634(12) 0.99576(9) 0.59899(6)
C105_2 C 0.02970(15) 0.97375(13) 0.63199(8)
H77_2 H 0.0626 0.9552 0.6538
C83_2 C 0.23556(17) 0.42022(12) 0.04618(8)
C84_2 C 0.23351(17) 0.38139(13) 0.00758(8)
H64_2 H 0.3429 0.3604 0.0169
O13_2 O 0.19105(11) 0.07188(9) 0.64246(6)
O14_2 O 0.31469(12) 0.07348(11) 0.65708(6)
N4_2 N 0.44072(13) 0.01019(10) 0.61641(7)
C61_2 C 0.25133(17) 0.08916(13) 0.66374(8)
C62_2 C 0.24871(17) 0.13030(14) 0.70161(8)
C63_2 C 0.18203(17) 0.15495(15) 0.70964(9)
H45_2 H 0.1386 0.1480 0.6907
C64_2 C 0.17902(18) 0.18939(15) 0.74501(9)
H46_2 H 0.1335 0.2056 0.7497
C65_2 C 0.24211(18) 0.20059(14) 0.77401(9)
C66_2 C 0.3101(2) 0.1747(2) 0.76595(11)
H47_2 H 0.3537 0.1810 0.7849
C67_2 C 0.3116(2) 0.1406(2) 0.73034(11)
H48_2 H 0.3567 0.1237 0.7254
C68_2 C 0.23956(17) 0.23249(15) 0.81455(9)
C69_2 C 0.25747(19) 0.19363(15) 0.84923(9)
H49_2 H 0.2712 0.1495 0.8462
C70_2 C 0.21804(18) 0.29933(15) 0.81759(9)
C71_2 C 0.1995(2) 0.34430(15) 0.78220(9)
H50_2 H 0.1845 0.3868 0.7914
H51_2 H 0.2423 0.3500 0.7693
H52_2 H 0.1595 0.3255 0.7628
C85_2 C 0.16792(17) 0.37388(13) 0.97984(8)
H61_2 H 0.1236 0.3904 0.9861
C86_2 C 0.16839(18) 0.34133(14) 0.94225(8)
H62_2 H 0.1244 0.3371 0.9234
C87_2 C 0.23323(18) 0.31564(14) 0.93312(9)
C88_2 C 0.2986(2) 0.32304(18) 0.96116(10)
H63_2 H 0.3427 0.3060 0.9551
C89_2 C 0.29869(19) 0.35577(16) 0.99826(9)
C90_2 C 0.23461(17) 0.28420(14) 0.89226(9)
C91_2 C 0.21583(18) 0.32286(14) 0.85725(9)
H65_2 H 0.2010 0.3667 0.8602
C92_2 C 0.25587(19) 0.21755(15) 0.88855(9)
C93_2 C 0.2735(2) 0.17176(16) 0.92531(10)
H66_2 H 0.2690 0.1960 0.9498
H67_2 H 0.3233 0.1552 0.9274
H68_2 H 0.2393 0.1350 0.9220
C107_2 C 0.90453(16) 0.00385(12) 0.60288(9)
C108_2 C 0.93281(17) 0.02609(16) 0.56861(9)
H79_2 H 0.9009 0.0440 0.5462
C110_2 C 0.82481(16) 0.00803(12) 0.60557(9)
C111_2 C 0.77110(17) 0.01066(13) 0.57011(9)
H81_2 H 0.7855 0.0114 0.5445
C112_2 C 0.80173(16) 0.00815(12) 0.64381(9)
H82_2 H 0.8369 0.0067 0.6679
C113_2 C 0.69604(17) 0.01222(14) 0.57281(10)
H83_2 H 0.6607 0.0132 0.5488
C114_2 C 0.67270(16) 0.01242(13) 0.61059(9)
C115_2 C 0.72732(16) 0.01042(12) 0.64585(9)
H84_2 H 0.7129 0.0106 0.6715
C116_2 C 0.59350(16) 0.01233(13) 0.61320(9)
C117_2 C 0.5654(2) 0.0162(3) 0.64840(12)
H85_2 H 0.5983 0.0204 0.6732
C118_2 C 0.4917(2) 0.0144(3) 0.64936(11)
H86_2 H 0.4766 0.0162 0.6748
C119_2 C 0.4648(2) 0.0067(3) 0.58113(12)
H87_2 H 0.4300 0.0064 0.5569
C120_2 C 0.5396(4) 0.0033(2) 0.57858(19)
O15_2 O 0.18755(11) 0.92213(9) 0.56136(6)
O16_2 O 0.31062(11) 0.93020(10) 0.57293(6)
C72_2 C 0.2794(2) 0.69793(15) 0.39966(10)
C73_2 C 0.2941(2) 0.65310(16) 0.43666(11)
H53_2 H 0.2935 0.6789 0.4611
H54_2 H 0.2562 0.6194 0.4343
H55_2 H 0.3418 0.6323 0.4382
C74_2 C 0.24518(17) 0.80415(14) 0.36822(8)
H56_2 H 0.2333 0.8488 0.3711
C75_2 C 0.26163(17) 0.76559(14) 0.40339(9)
C76_2 C 0.25894(17) 0.79684(13) 0.44401(8)
C77_2 C 0.32381(17) 0.81712(16) 0.46905(9)
H57_2 H 0.3695 0.8080 0.4615
C78_2 C 0.32093(17) 0.85116(15) 0.50554(9)
H58_2 H 0.3648 0.8637 0.5226
C79_2 C 0.25340(16) 0.86632(12) 0.51652(8)
C80_2 C 0.18868(17) 0.84571(14) 0.49150(8)
H59_2 H 0.1429 0.8545 0.4991
C81_2 C 0.19146(17) 0.81210(14) 0.45514(9)
H60_2 H 0.1475 0.7997 0.4381
C82_2 C 0.25006(17) 0.90901(12) 0.55338(8)
C94_2 C 0.24545(17) 0.77976(15) 0.32904(9)
C95_2 C 0.2295(2) 0.82628(16) 0.29194(9)
H69_2 H 0.2327 0.8017 0.2674
H70_2 H 0.2653 0.8618 0.2952
H71_2 H 0.1804 0.8446 0.2899
C96_2 C 0.26278(18) 0.71226(15) 0.32571(9)
C97_2 C 0.27918(19) 0.67352(15) 0.36062(9)
H72_2 H 0.2907 0.6288 0.3577
C98_2 C 0.26212(18) 0.68159(16) 0.28443(9)
C99_2 C 0.19778(19) 0.67580(18) 0.25559(10)
H73_2 H 0.1541 0.6945 0.2612
C100_2 C 0.19630(19) 0.64342(18) 0.21898(10)
H74_2 H 0.1515 0.6387 0.2009
C101_2 C 0.26018(17) 0.61791(14) 0.20877(9)
C102_2 C 0.3258(2) 0.6255(2) 0.23599(11)
H75_2 H 0.3702 0.6107 0.2289
C103_2 C 0.3261(2) 0.6549(2) 0.27376(11)
H76_2 H 0.3704 0.6570 0.2926
C104_2 C 0.25858(17) 0.58002(13) 0.16953(8)
C106_2 C 0.95558(15) 0.97775(13) 0.63462(9)
H78_2 H 0.9396 0.9626 0.6582
H88_2 H 0.5537 0.9949 0.5533
Zn8 Zn 0.832615(16) 0.004003(13) 0.399762(8)
O15_3 O 0.81245(11) 0.07787(9) 0.43864(6)
O16_3 O 0.68938(11) 0.06980(10) 0.42707(6)
O19_2 O 0.80414(12) 0.43257(10) 0.85136(6)
O20_2 O 0.68052(12) 0.43692(11) 0.83972(6)
C72_3 C 0.7206(2) 0.30207(15) 0.60034(10)
C73_3 C 0.7059(2) 0.34690(16) 0.56334(11)
H53_3 H 0.7065 0.3211 0.5389
H54_3 H 0.7438 0.3806 0.5657
H55_3 H 0.6582 0.3677 0.5618
C74_3 C 0.75482(17) 0.19585(14) 0.63178(8)
H56_3 H 0.7667 0.1512 0.6289
C75_3 C 0.73837(17) 0.23441(14) 0.59661(9)
C76_3 C 0.74106(17) 0.20316(13) 0.55599(8)
C77_3 C 0.67619(17) 0.18288(16) 0.53095(9)
H57_3 H 0.6305 0.1920 0.5385
C78_3 C 0.67907(17) 0.14884(15) 0.49446(9)
H58_3 H 0.6352 0.1363 0.4774
C79_3 C 0.74660(16) 0.13368(12) 0.48348(8)
C80_3 C 0.81132(17) 0.15429(14) 0.50850(8)
H59_3 H 0.8571 0.1455 0.5009
C81_3 C 0.80854(17) 0.18790(14) 0.54486(9)
H60_3 H 0.8525 0.2003 0.5619
C82_3 C 0.74994(17) 0.09099(12) 0.44662(8)
C94_3 C 0.75455(17) 0.22024(15) 0.67096(9)
C95_3 C 0.7705(2) 0.17372(16) 0.70806(9)
H69_3 H 0.7673 0.1983 0.7326
H70_3 H 0.7347 0.1382 0.7048
H71_3 H 0.8196 0.1554 0.7101
C96_3 C 0.73722(18) 0.28774(15) 0.67429(9)
C97_3 C 0.72082(19) 0.32648(15) 0.63938(9)
H72_3 H 0.7093 0.3712 0.6423
C98_3 C 0.73788(18) 0.31841(16) 0.71557(9)
C99_3 C 0.80222(19) 0.32420(18) 0.74441(10)
H73_3 H 0.8459 0.3055 0.7388
C100_3 C 0.80370(19) 0.35658(18) 0.78102(10)
H74_3 H 0.8485 0.3613 0.7991
C101_3 C 0.73982(17) 0.38209(14) 0.79123(9)
C102_3 C 0.6742(2) 0.3745(2) 0.76401(11)
H75_3 H 0.6298 0.3893 0.7711
C103_3 C 0.6739(2) 0.3451(2) 0.72624(11)
H76_3 H 0.6296 0.3430 0.7074
C104_3 C 0.74142(17) 0.41998(13) 0.83047(8)
C106_3 C 0.04442(15) 0.02225(13) 0.36538(9)
H78_3 H 0.0604 0.0374 0.3418
H88_3 H 0.4463 0.0051 0.4467
Zn12_2 Zn 0.832615(16) 0.495997(13) 0.899762(8)
Zn14_2 Zn 0.669778(17) 0.503973(13) 0.884444(9)
O23_2 O 0.80414(12) 0.06743(10) 0.35136(6)
O24_2 O 0.68052(12) 0.06308(11) 0.33972(6)
N6 N 0.94366(12) 0.00424(9) 0.40101(6)
Zn9_2 Zn 0.669778(17) 0.996027(13) 0.384444(9)
O13_3 O 0.80895(11) 0.92812(9) 0.35754(6)
O14_3 O 0.68531(12) 0.92652(11) 0.34292(6)
N4_3 N 0.55928(13) 0.98981(10) 0.38359(7)
C61_3 C 0.74867(17) 0.91084(13) 0.33626(8)
C62_3 C 0.75129(17) 0.86970(14) 0.29839(8)
C63_3 C 0.81797(17) 0.84505(15) 0.29036(9)
H45_3 H 0.8614 0.8520 0.3093
C64_3 C 0.82098(18) 0.81061(15) 0.25499(9)
H46_3 H 0.8665 0.7944 0.2503
C65_3 C 0.75789(18) 0.79941(14) 0.22599(9)
C66_3 C 0.6899(2) 0.8253(2) 0.23405(11)
H47_3 H 0.6463 0.8190 0.2151
C67_3 C 0.6884(2) 0.8594(2) 0.26966(11)
H48_3 H 0.6433 0.8763 0.2746
C68_3 C 0.76044(17) 0.76751(15) 0.18545(9)
C69_3 C 0.74253(19) 0.80637(15) 0.15077(9)
H49_3 H 0.7288 0.8505 0.1538
C70_3 C 0.78196(18) 0.70067(15) 0.18241(9)
C71_3 C 0.8005(2) 0.65570(15) 0.21780(9)
H50_3 H 0.8155 0.6132 0.2086
H51_3 H 0.7577 0.6500 0.2307
H52_3 H 0.8405 0.6745 0.2372
C85_3 C 0.83208(17) 0.62612(13) 0.02016(8)
H61_3 H 0.8764 0.6096 0.0139
C86_3 C 0.83161(18) 0.65867(14) 0.05775(8)
H62_3 H 0.8756 0.6629 0.0766
C87_3 C 0.76677(18) 0.68436(14) 0.06688(9)
C88_3 C 0.7014(2) 0.67696(18) 0.03884(10)
H63_3 H 0.6573 0.6940 0.0449
C89_3 C 0.70131(19) 0.64423(16) 0.00174(9)
C90_3 C 0.76539(17) 0.71580(14) 0.10774(9)
C91_3 C 0.78417(18) 0.67714(14) 0.14275(9)
H65_3 H 0.7990 0.6333 0.1398
C92_3 C 0.74413(19) 0.78245(15) 0.11145(9)
C93_3 C 0.7265(2) 0.82824(16) 0.07469(10)
H66_3 H 0.7310 0.8040 0.0502
H67_3 H 0.6767 0.8448 0.0726
H68_3 H 0.7607 0.8650 0.0780
C107_3 C 0.09547(16) 0.99615(12) 0.39712(9)
C108_3 C 0.06719(17) 0.97391(16) 0.43139(9)
H79_3 H 0.0991 0.9560 0.4538
C110_3 C 0.17519(16) 0.99197(12) 0.39443(9)
C111_3 C 0.22890(17) 0.98934(13) 0.42989(9)
H81_3 H 0.2145 0.9886 0.4555
C112_3 C 0.19827(16) 0.99185(12) 0.35619(9)
H82_3 H 0.1631 0.9933 0.3321
C113_3 C 0.30396(17) 0.98778(14) 0.42719(10)
H83_3 H 0.3393 0.9868 0.4512
C114_3 C 0.32730(16) 0.98758(13) 0.38941(9)
C115_3 C 0.27268(16) 0.98958(12) 0.35415(9)
H84_3 H 0.2871 0.9894 0.3285
C116_3 C 0.40650(16) 0.98767(13) 0.38680(9)
C117_3 C 0.4346(2) 0.9838(3) 0.35160(12)
H85_3 H 0.4017 0.9796 0.3268
C118_3 C 0.5083(2) 0.9856(3) 0.35064(11)
H86_3 H 0.5234 0.9838 0.3252
C119_3 C 0.5352(2) 0.9933(3) 0.41887(12)
H87_3 H 0.5700 0.9936 0.4431
C120_3 C 0.4604(4) 0.9967(2) 0.42142(19)
O21_2 O 0.82702(11) 0.94092(9) 0.44632(5)
O22_2 O 0.70328(12) 0.93098(10) 0.43144(6)
O17_2 O 0.82702(11) 0.55908(9) 0.94632(5)
O18_2 O 0.70328(12) 0.56902(10) 0.93144(6)
C83_3 C 0.76444(17) 0.57978(12) 0.95382(8)
C84_3 C 0.76649(17) 0.61861(13) 0.99242(8)
H64_3 H 0.6571 0.6396 0.9831
C105_3 C 0.97030(15) 0.02625(13) 0.36801(8)
H77_3 H 0.9374 0.0448 0.3462
C72_4 C 0.7206(2) 0.19793(15) 0.10034(10)
C73_4 C 0.7059(2) 0.15310(16) 0.06334(11)
H53_4 H 0.7065 0.1789 0.0389
H54_4 H 0.7438 0.1194 0.0657
H55_4 H 0.6582 0.1323 0.0618
C74_4 C 0.75482(17) 0.30415(14) 0.13178(8)
H56_4 H 0.7667 0.3488 0.1289
C75_4 C 0.73837(17) 0.26559(14) 0.09661(9)
C76_4 C 0.74106(17) 0.29684(13) 0.05599(8)
C77_4 C 0.67619(17) 0.31712(16) 0.03095(9)
H57_4 H 0.6305 0.3080 0.0385
C80_4 C 0.81132(17) 0.34571(14) 0.00850(8)
H59_4 H 0.8571 0.3545 0.0009
C81_4 C 0.80854(17) 0.31210(14) 0.04486(9)
H60_4 H 0.8525 0.2997 0.0619
C94_4 C 0.75455(17) 0.27976(15) 0.17096(9)
C95_4 C 0.7705(2) 0.32628(16) 0.20806(9)
H69_4 H 0.7673 0.3017 0.2326
H70_4 H 0.7347 0.3618 0.2048
H71_4 H 0.8196 0.3446 0.2101
C96_4 C 0.73722(18) 0.21226(15) 0.17429(9)
C97_4 C 0.72082(19) 0.17352(15) 0.13938(9)
H72_4 H 0.7093 0.1288 0.1423
C98_4 C 0.73788(18) 0.18159(16) 0.21557(9)
C99_4 C 0.80222(19) 0.17580(18) 0.24441(10)
H73_4 H 0.8459 0.1945 0.2388
C100_4 C 0.80370(19) 0.14342(18) 0.28102(10)
H74_4 H 0.8485 0.1387 0.2991
C101_4 C 0.73982(17) 0.11791(14) 0.29123(9)
C102_4 C 0.6742(2) 0.1255(2) 0.26401(11)
H75_4 H 0.6298 0.1107 0.2711
C103_4 C 0.6739(2) 0.1549(2) 0.22624(11)
H76_4 H 0.6296 0.1570 0.2074
C104_4 C 0.74142(17) 0.08002(13) 0.33047(8)
O13_4 O 0.80895(11) 0.57188(9) 0.85754(6)
O14_4 O 0.68531(12) 0.57348(11) 0.84292(6)
O15_4 O 0.81245(11) 0.42213(9) 0.93864(6)
O16_4 O 0.68938(11) 0.43020(10) 0.92707(6)
N4_4 N 0.55928(13) 0.51019(10) 0.88359(7)
C61_4 C 0.74867(17) 0.58916(13) 0.83626(8)
C62_4 C 0.75129(17) 0.63030(14) 0.79839(8)
C63_4 C 0.81797(17) 0.65495(15) 0.79036(9)
H45_4 H 0.8614 0.6480 0.8093
C64_4 C 0.82098(18) 0.68939(15) 0.75499(9)
H46_4 H 0.8665 0.7056 0.7503
C65_4 C 0.75789(18) 0.70059(14) 0.72599(9)
C66_4 C 0.6899(2) 0.6747(2) 0.73405(11)
H47_4 H 0.6463 0.6810 0.7151
C67_4 C 0.6884(2) 0.6406(2) 0.76966(11)
H48_4 H 0.6433 0.6237 0.7746
C68_4 C 0.76044(17) 0.73249(15) 0.68545(9)
C69_4 C 0.74253(19) 0.69363(15) 0.65077(9)
H49_4 H 0.7288 0.6495 0.6538
C70_4 C 0.78196(18) 0.79933(15) 0.68241(9)
C71_4 C 0.8005(2) 0.84430(15) 0.71780(9)
H50_4 H 0.8155 0.8868 0.7086
H51_4 H 0.7577 0.8500 0.7307
H52_4 H 0.8405 0.8255 0.7372
C78_4 C 0.67907(17) 0.35116(15) 0.99446(9)
H58_4 H 0.6352 0.3637 0.9774
C79_4 C 0.74660(16) 0.36632(12) 0.98348(8)
C82_4 C 0.74994(17) 0.40901(12) 0.94662(8)
C83_4 C 0.76444(17) 0.92022(12) 0.45382(8)
C84_4 C 0.76649(17) 0.88139(13) 0.49242(8)
C85_4 C 0.83208(17) 0.87388(13) 0.52016(8)
H61_4 H 0.8764 0.8904 0.5139
C86_4 C 0.83161(18) 0.84133(14) 0.55775(8)
H62_4 H 0.8756 0.8371 0.5766
C87_4 C 0.76677(18) 0.81564(14) 0.56688(9)
C88_4 C 0.7014(2) 0.82304(18) 0.53884(10)
H63_4 H 0.6573 0.8060 0.5449
C89_4 C 0.70131(19) 0.85577(16) 0.50174(9)
H64_4 H 0.6571 0.8604 0.4831
C90_4 C 0.76539(17) 0.78420(14) 0.60774(9)
C91_4 C 0.78417(18) 0.82286(14) 0.64275(9)
H65_4 H 0.7990 0.8667 0.6398
C92_4 C 0.74413(19) 0.71755(15) 0.61145(9)
C93_4 C 0.7265(2) 0.67176(16) 0.57469(10)
H66_4 H 0.7310 0.6960 0.5502
H67_4 H 0.6767 0.6552 0.5726
H68_4 H 0.7607 0.6350 0.5780
C106_4 C 0.04442(15) 0.47775(13) 0.86538(9)
H78_4 H 0.0604 0.4626 0.8418
C107_4 C 0.09547(16) 0.50385(12) 0.89712(9)
C108_4 C 0.06719(17) 0.52609(16) 0.93139(9)
H79_4 H 0.0991 0.5440 0.9538
C110_4 C 0.17519(16) 0.50803(12) 0.89443(9)
C111_4 C 0.22890(17) 0.51066(13) 0.92989(9)
H81_4 H 0.2145 0.5114 0.9555
C112_4 C 0.19827(16) 0.50815(12) 0.85619(9)
H82_4 H 0.1631 0.5067 0.8321
C113_4 C 0.30396(17) 0.51222(14) 0.92719(10)
H83_4 H 0.3393 0.5132 0.9512
C114_4 C 0.32730(16) 0.51242(13) 0.88941(9)
C115_4 C 0.27268(16) 0.51042(12) 0.85415(9)
H84_4 H 0.2871 0.5106 0.8285
C116_4 C 0.40650(16) 0.51233(13) 0.88680(9)
C117_4 C 0.4346(2) 0.5162(3) 0.85160(12)
H85_4 H 0.4017 0.5204 0.8268
C118_4 C 0.5083(2) 0.5144(3) 0.85064(11)
H86_4 H 0.5234 0.5162 0.8252
C119_4 C 0.5352(2) 0.5067(3) 0.91887(12)
H87_4 H 0.5700 0.5064 0.9431
C120_4 C 0.4604(4) 0.5033(2) 0.92142(19)
H88_4 H 0.4463 0.4949 0.9467
N6_2 N 0.94366(12) 0.49576(9) 0.90101(6)
C105_4 C 0.97030(15) 0.47375(13) 0.86801(8)
H77_4 H 0.9374 0.4552 0.8462
C109_2 C 0.99276(16) 0.52156(15) 0.93211(9)
H80_2 H 0.9753 0.5371 0.9552
C109_3 C 0.99276(16) 0.97844(15) 0.43211(9)
H80_3 H 0.9753 0.9629 0.4552
C109_4 C 0.00724(16) 0.02156(15) 0.56789(9)
H80_4 H 0.0247 0.0371 0.5448
loop_
_geom_bond_atom_site_label_1
_geom_bond_atom_site_label_2
_geom_bond_site_symmetry_1
_geom_bond_site_symmetry_2
Zn1 O2 1_555 1_555
O3 C22 1_555 1_555
N1 Zn1 1_555 1_555
H3 C6 1_555 1_555
H4 C7 1_555 1_555
C11 C10 1_555 1_555
H6 C11 1_555 1_555
H8 C11 1_555 1_555
C15 C10 1_555 1_555
H12 C15 1_555 1_555
H15 C20 1_555 1_555
H16 C21 1_555 1_555
C23 N1 1_555 1_555
H17 C23 1_555 1_555
C24 C23 1_555 1_555
H18 C24 1_555 1_555
C25 C24 1_555 1_555
C26 C25 1_555 1_555
H19 C26 1_555 1_555
C27 N1 1_555 1_555
H20 C27 1_555 1_555
C28 C25 1_555 1_555
C29 C28 1_555 1_555
H21 C29 1_555 1_555
C30 C28 1_555 1_555
H22 C30 1_555 1_555
N2 C31 1_555 1_555
C31 H23 1_555 1_555
C32 C31 1_555 1_555
H24 C32 1_555 1_555
C33 C32 1_555 1_555
C34 C33 1_555 1_555
H25 C34 1_555 1_555
C35 N2 1_555 1_555
H26 C35 1_555 1_555
C36 C33 1_555 1_555
C37 C30 1_555 1_555
H27 C37 1_555 1_555
C38 C29 1_555 1_555
H28 C38 1_555 1_555
O5 Zn1 1_555 1_555
C39 O5 1_555 1_555
C40 C39 1_555 1_555
C41 C40 1_555 1_555
H29 C41 1_555 1_555
C42 C41 1_555 1_555
H30 C42 1_555 1_555
C43 C42 1_555 1_555
C46 C43 1_555 1_555
C47 C46 1_555 1_555
H33 C47 1_555 1_555
C50 C47 1_555 1_555
C51 C50 1_555 1_555
H37 C51 1_555 1_555
H39 C51 1_555 1_555
C52 C50 1_555 1_555
C54 C52 1_555 1_555
C55 C54 1_555 1_555
H41 C55 1_555 1_555
C56 C55 1_555 1_555
H42 C56 1_555 1_555
C57 C56 1_555 1_555
Zn5 N2 1_555 1_555
Zn7 O3 1_555 1_555
O10 Zn1 1_555 1_555
O11 Zn1 1_555 1_555
C6 C7 1_555 1_555
C20 C21 1_555 1_555
C26 C27 1_555 1_555
C34 C35 1_555 1_555
C36 C37 1_555 1_555
C36 C38 1_555 1_555
O1 C1 1_555 1_555
C1 C2 1_555 1_555
C2 C3 1_555 1_555
C3 H1 1_555 1_555
C4 C3 1_555 1_555
H2 C4 1_555 1_555
C5 C4 1_555 1_555
C8 C5 1_555 1_555
C9 C8 1_555 1_555
H5 C9 1_555 1_555
C12 C9 1_555 1_555
C13 C12 1_555 1_555
H9 C13 1_555 1_555
H11 C13 1_555 1_555
C14 C12 1_555 1_555
C16 C14 1_555 1_555
C17 C16 1_555 1_555
H13 C17 1_555 1_555
C18 C17 1_555 1_555
H14 C18 1_555 1_555
C19 C18 1_555 1_555
Zn5 O1 1_555 1_555
O6 Zn5 1_555 1_555
O7 C60 1_555 1_555
H31 C44 1_555 1_555
H32 C45 1_555 1_555
C49 C48 1_555 1_555
H34 C49 1_555 1_555
H36 C49 1_555 1_555
C53 C48 1_555 1_555
H40 C53 1_555 1_555
H43 C58 1_555 1_555
H44 C59 1_555 1_555
Zn4 O7 1_555 1_555
O9 Zn5 1_555 1_555
O12 Zn5 1_555 1_555
C44 C45 1_555 1_555
C58 C59 1_555 1_555
N3 Zn7 1_555 1_555
O10 C60_2 1_555 1_555
H31_2 C44_2 1_555 1_555
H32_2 C45_2 1_555 1_555
C49_2 C48_2 1_555 1_555
H34_2 C49_2 1_555 1_555
H36_2 C49_2 1_555 1_555
C53_2 C48_2 1_555 1_555
H40_2 C53_2 1_555 1_555
H43_2 C58_2 1_555 1_555
H44_2 C59_2 1_555 1_555
C44_2 C45_2 1_555 1_555
C58_2 C59_2 1_555 1_555
O1_2 C1_2 1_555 1_555
C1_2 C2_2 1_555 1_555
C2_2 C3_2 1_555 1_555
C3_2 H1_2 1_555 1_555
C4_2 C3_2 1_555 1_555
H2_2 C4_2 1_555 1_555
C5_2 C4_2 1_555 1_555
C8_2 C5_2 1_555 1_555
C9_2 C8_2 1_555 1_555
H5_2 C9_2 1_555 1_555
C12_2 C9_2 1_555 1_555
C13_2 C12_2 1_555 1_555
H9_2 C13_2 1_555 1_555
H11_2 C13_2 1_555 1_555
C14_2 C12_2 1_555 1_555
C16_2 C14_2 1_555 1_555
C17_2 C16_2 1_555 1_555
H13_2 C17_2 1_555 1_555
C18_2 C17_2 1_555 1_555
H14_2 C18_2 1_555 1_555
C19_2 C18_2 1_555 1_555
C36_2 C33_2 1_555 1_555
H19_2 C26_2 1_555 1_555
H20_2 C27_2 1_555 1_555
H22_2 C30_2 1_555 1_555
C31_2 H23_2 1_555 1_555
C32_2 C31_2 1_555 1_555
H24_2 C32_2 1_555 1_555
C37_2 C30_2 1_555 1_555
H27_2 C37_2 1_555 1_555
C39_2 O5_2 1_555 1_555
C40_2 C39_2 1_555 1_555
C41_2 C40_2 1_555 1_555
H29_2 C41_2 1_555 1_555
C42_2 C41_2 1_555 1_555
H30_2 C42_2 1_555 1_555
C43_2 C42_2 1_555 1_555
C46_2 C43_2 1_555 1_555
C47_2 C46_2 1_555 1_555
H33_2 C47_2 1_555 1_555
C50_2 C47_2 1_555 1_555
C51_2 C50_2 1_555 1_555
H37_2 C51_2 1_555 1_555
H39_2 C51_2 1_555 1_555
C52_2 C50_2 1_555 1_555
C54_2 C52_2 1_555 1_555
C55_2 C54_2 1_555 1_555
H41_2 C55_2 1_555 1_555
C56_2 C55_2 1_555 1_555
H42_2 C56_2 1_555 1_555
C57_2 C56_2 1_555 1_555
C26_2 C27_2 1_555 1_555
O9 C22_2 1_555 1_555
H3_2 C6_2 1_555 1_555
H4_2 C7_2 1_555 1_555
C11_2 C10_2 1_555 1_555
H6_2 C11_2 1_555 1_555
H8_2 C11_2 1_555 1_555
C15_2 C10_2 1_555 1_555
H12_2 C15_2 1_555 1_555
H15_2 C20_2 1_555 1_555
H16_2 C21_2 1_555 1_555
H17_2 C23_2 1_555 1_555
C24_2 C23_2 1_555 1_555
H18_2 C24_2 1_555 1_555
H21_2 C29_2 1_555 1_555
H25_2 C34_2 1_555 1_555
H26_2 C35_2 1_555 1_555
C38_2 C29_2 1_555 1_555
H28_2 C38_2 1_555 1_555
C6_2 C7_2 1_555 1_555
C20_2 C21_2 1_555 1_555
C34_2 C35_2 1_555 1_555
N1_2 Zn4 1_555 1_555
C28_2 C25_2 1_555 1_555
N5 C105 1_555 1_555
C105 H77 1_555 1_555
C109 N5 1_555 1_555
H80 C109 1_555 1_555
Zn10 N5 1_555 1_555
Zn10 O13 1_555 1_555
Zn9 O14 1_555 1_555
O13 C61 1_555 1_555
O14 C61 1_555 1_555
O15 Zn10 1_555 1_555
O16 Zn9 1_555 1_555
O17 C83 1_555 1_555
O18 C83 1_555 1_555
N4 Zn9 1_555 1_555
C61 C62 1_555 1_555
C62 C63 1_555 1_555
C63 H45 1_555 1_555
C64 C63 1_555 1_555
H46 C64 1_555 1_555
C65 C64 1_555 1_555
C66 C65 1_555 1_555
H47 C66 1_555 1_555
C67 C62 1_555 1_555
H48 C67 1_555 1_555
C68 C65 1_555 1_555
C69 C68 1_555 1_555
H49 C69 1_555 1_555
C70 C68 1_555 1_555
C71 C70 1_555 1_555
H50 C71 1_555 1_555
H51 C71 1_555 1_555
H52 C71 1_555 1_555
H58 C78 1_555 1_555
C79 C78 1_555 1_555
C82 O15 1_555 1_555
C83 C84 1_555 1_555
C84 C85 1_555 1_555
C85 H61 1_555 1_555
C86 C85 1_555 1_555
H62 C86 1_555 1_555
C87 C86 1_555 1_555
C88 C87 1_555 1_555
H63 C88 1_555 1_555
C89 C84 1_555 1_555
H64 C89 1_555 1_555
C90 C87 1_555 1_555
C91 C70 1_555 1_555
H65 C91 1_555 1_555
C92 C69 1_555 1_555
C93 C92 1_555 1_555
H66 C93 1_555 1_555
H67 C93 1_555 1_555
H68 C93 1_555 1_555
H78 C106 1_555 1_555
C107 C106 1_555 1_555
C108 C107 1_555 1_555
H79 C108 1_555 1_555
C110 C107 1_555 1_555
C111 C110 1_555 1_555
H81 C111 1_555 1_555
C112 C110 1_555 1_555
H82 C112 1_555 1_555
C113 C111 1_555 1_555
H83 C113 1_555 1_555
C114 C113 1_555 1_555
C115 C112 1_555 1_555
H84 C115 1_555 1_555
C116 C114 1_555 1_555
C117 C116 1_555 1_555
H85 C117 1_555 1_555
C118 N4 1_555 1_555
H86 C118 1_555 1_555
C119 N4 1_555 1_555
H87 C119 1_555 1_555
C120 C116 1_555 1_555
H88 C120 1_555 1_555
Zn14 O18 1_555 1_555
O21 Zn10 1_555 1_555
O22 Zn9 1_555 1_555
O23 Zn10 1_555 1_555
O24 Zn9 1_555 1_555
O16 C82 1_555 1_555
C66 C67 1_555 1_555
C79 C82 1_555 1_555
C88 C89 1_555 1_555
C90 C91 1_555 1_555
C90 C92 1_555 1_555
C114 C115 1_555 1_555
C117 C118 1_555 1_555
C119 C120 1_555 1_555
O19 C104 1_555 1_555
O20 C104 1_555 1_555
C72 C73 1_555 1_555
C73 H53 1_555 1_555
H54 C73 1_555 1_555
H55 C73 1_555 1_555
C74 H56 1_555 1_555
C75 C72 1_555 1_555
C76 C75 1_555 1_555
C77 C76 1_555 1_555
H57 C77 1_555 1_555
H59 C80 1_555 1_555
C81 C76 1_555 1_555
H60 C81 1_555 1_555
C94 C74 1_555 1_555
C95 C94 1_555 1_555
H69 C95 1_555 1_555
H70 C95 1_555 1_555
H71 C95 1_555 1_555
C96 C94 1_555 1_555
C97 C72 1_555 1_555
H72 C97 1_555 1_555
C98 C96 1_555 1_555
C99 C98 1_555 1_555
H73 C99 1_555 1_555
C100 C99 1_555 1_555
H74 C100 1_555 1_555
C101 C100 1_555 1_555
C102 C101 1_555 1_555
H75 C102 1_555 1_555
C103 C98 1_555 1_555
H76 C103 1_555 1_555
C104 C101 1_555 1_555
Zn12 O19 1_555 1_555
C74 C75 1_555 1_555
C80 C81 1_555 1_555
C96 C97 1_555 1_555
C102 C103 1_555 1_555
N5_2 C105_2 1_555 1_555
C105_2 H77_2 1_555 1_555
Zn12 N5_2 1_555 1_555
O21 C83_2 1_555 1_555
O22 C83_2 1_555 1_555
C83_2 C84_2 1_555 1_555
Zn14 O14_2 1_555 1_555
O13_2 C61_2 1_555 1_555
O14_2 C61_2 1_555 1_555
N4_2 Zn14 1_555 1_555
C61_2 C62_2 1_555 1_555
C62_2 C63_2 1_555 1_555
C63_2 H45_2 1_555 1_555
C64_2 C63_2 1_555 1_555
H46_2 C64_2 1_555 1_555
C65_2 C64_2 1_555 1_555
C66_2 C65_2 1_555 1_555
H47_2 C66_2 1_555 1_555
C67_2 C62_2 1_555 1_555
H48_2 C67_2 1_555 1_555
C68_2 C65_2 1_555 1_555
C69_2 C68_2 1_555 1_555
H49_2 C69_2 1_555 1_555
C70_2 C68_2 1_555 1_555
C71_2 C70_2 1_555 1_555
H50_2 C71_2 1_555 1_555
H51_2 C71_2 1_555 1_555
H52_2 C71_2 1_555 1_555
C85_2 H61_2 1_555 1_555
C86_2 C85_2 1_555 1_555
H62_2 C86_2 1_555 1_555
C87_2 C86_2 1_555 1_555
C88_2 C87_2 1_555 1_555
H63_2 C88_2 1_555 1_555
C90_2 C87_2 1_555 1_555
C91_2 C70_2 1_555 1_555
H65_2 C91_2 1_555 1_555
C92_2 C69_2 1_555 1_555
C93_2 C92_2 1_555 1_555
H66_2 C93_2 1_555 1_555
H67_2 C93_2 1_555 1_555
H68_2 C93_2 1_555 1_555
C108_2 C107_2 1_555 1_555
H79_2 C108_2 1_555 1_555
C110_2 C107_2 1_555 1_555
C111_2 C110_2 1_555 1_555
H81_2 C111_2 1_555 1_555
C112_2 C110_2 1_555 1_555
H82_2 C112_2 1_555 1_555
C113_2 C111_2 1_555 1_555
H83_2 C113_2 1_555 1_555
C114_2 C113_2 1_555 1_555
C115_2 C112_2 1_555 1_555
H84_2 C115_2 1_555 1_555
C116_2 C114_2 1_555 1_555
C117_2 C116_2 1_555 1_555
H85_2 C117_2 1_555 1_555
C118_2 N4_2 1_555 1_555
H86_2 C118_2 1_555 1_555
C119_2 N4_2 1_555 1_555
H87_2 C119_2 1_555 1_555
C120_2 C116_2 1_555 1_555
C66_2 C67_2 1_555 1_555
C88_2 C89_2 1_555 1_555
C90_2 C91_2 1_555 1_555
C90_2 C92_2 1_555 1_555
C114_2 C115_2 1_555 1_555
C117_2 C118_2 1_555 1_555
C119_2 C120_2 1_555 1_555
O15_2 Zn12 1_555 1_555
O23 C104_2 1_555 1_555
O24 C104_2 1_555 1_555
C72_2 C73_2 1_555 1_555
C73_2 H53_2 1_555 1_555
H54_2 C73_2 1_555 1_555
H55_2 C73_2 1_555 1_555
C74_2 H56_2 1_555 1_555
C75_2 C72_2 1_555 1_555
C76_2 C75_2 1_555 1_555
C77_2 C76_2 1_555 1_555
H57_2 C77_2 1_555 1_555
C78_2 C77_2 1_555 1_555
H58_2 C78_2 1_555 1_555
C79_2 C78_2 1_555 1_555
C80_2 C79_2 1_555 1_555
H59_2 C80_2 1_555 1_555
C81_2 C76_2 1_555 1_555
H60_2 C81_2 1_555 1_555
C82_2 O15_2 1_555 1_555
C94_2 C74_2 1_555 1_555
C95_2 C94_2 1_555 1_555
H69_2 C95_2 1_555 1_555
H70_2 C95_2 1_555 1_555
H71_2 C95_2 1_555 1_555
C96_2 C94_2 1_555 1_555
C97_2 C72_2 1_555 1_555
H72_2 C97_2 1_555 1_555
C98_2 C96_2 1_555 1_555
C99_2 C98_2 1_555 1_555
H73_2 C99_2 1_555 1_555
C100_2 C99_2 1_555 1_555
H74_2 C100_2 1_555 1_555
C101_2 C100_2 1_555 1_555
C102_2 C101_2 1_555 1_555
H75_2 C102_2 1_555 1_555
C103_2 C98_2 1_555 1_555
H76_2 C103_2 1_555 1_555
C104_2 C101_2 1_555 1_555
H78_2 C106_2 1_555 1_555
O16_2 C82_2 1_555 1_555
C74_2 C75_2 1_555 1_555
C79_2 C82_2 1_555 1_555
C80_2 C81_2 1_555 1_555
C96_2 C97_2 1_555 1_555
C102_2 C103_2 1_555 1_555
O15_3 Zn8 1_555 1_555
O19_2 C104_3 1_555 1_555
O20_2 C104_3 1_555 1_555
C72_3 C73_3 1_555 1_555
C73_3 H53_3 1_555 1_555
H54_3 C73_3 1_555 1_555
H55_3 C73_3 1_555 1_555
C74_3 H56_3 1_555 1_555
C75_3 C72_3 1_555 1_555
C76_3 C75_3 1_555 1_555
C77_3 C76_3 1_555 1_555
H57_3 C77_3 1_555 1_555
C78_3 C77_3 1_555 1_555
H58_3 C78_3 1_555 1_555
C79_3 C78_3 1_555 1_555
C80_3 C79_3 1_555 1_555
H59_3 C80_3 1_555 1_555
C81_3 C76_3 1_555 1_555
H60_3 C81_3 1_555 1_555
C82_3 O15_3 1_555 1_555
C94_3 C74_3 1_555 1_555
C95_3 C94_3 1_555 1_555
H69_3 C95_3 1_555 1_555
H70_3 C95_3 1_555 1_555
H71_3 C95_3 1_555 1_555
C96_3 C94_3 1_555 1_555
C97_3 C72_3 1_555 1_555
H72_3 C97_3 1_555 1_555
C98_3 C96_3 1_555 1_555
C99_3 C98_3 1_555 1_555
H73_3 C99_3 1_555 1_555
C100_3 C99_3 1_555 1_555
H74_3 C100_3 1_555 1_555
C101_3 C100_3 1_555 1_555
C102_3 C101_3 1_555 1_555
H75_3 C102_3 1_555 1_555
C103_3 C98_3 1_555 1_555
H76_3 C103_3 1_555 1_555
C104_3 C101_3 1_555 1_555
H78_3 C106_3 1_555 1_555
Zn12_2 O19_2 1_555 1_555
Zn14_2 O20_2 1_555 1_555
O23_2 Zn8 1_555 1_555
N6 Zn8 1_555 1_555
O16_3 C82_3 1_555 1_555
C74_3 C75_3 1_555 1_555
C79_3 C82_3 1_555 1_555
C80_3 C81_3 1_555 1_555
C96_3 C97_3 1_555 1_555
C102_3 C103_3 1_555 1_555
Zn9_2 O14_3 1_555 1_555
O13_3 C61_3 1_555 1_555
O14_3 C61_3 1_555 1_555
N4_3 Zn9_2 1_555 1_555
C61_3 C62_3 1_555 1_555
C62_3 C63_3 1_555 1_555
C63_3 H45_3 1_555 1_555
C64_3 C63_3 1_555 1_555
H46_3 C64_3 1_555 1_555
C65_3 C64_3 1_555 1_555
C66_3 C65_3 1_555 1_555
H47_3 C66_3 1_555 1_555
C67_3 C62_3 1_555 1_555
H48_3 C67_3 1_555 1_555
C68_3 C65_3 1_555 1_555
C69_3 C68_3 1_555 1_555
H49_3 C69_3 1_555 1_555
C70_3 C68_3 1_555 1_555
C71_3 C70_3 1_555 1_555
H50_3 C71_3 1_555 1_555
H51_3 C71_3 1_555 1_555
H52_3 C71_3 1_555 1_555
C85_3 H61_3 1_555 1_555
C86_3 C85_3 1_555 1_555
H62_3 C86_3 1_555 1_555
C87_3 C86_3 1_555 1_555
C88_3 C87_3 1_555 1_555
H63_3 C88_3 1_555 1_555
C90_3 C87_3 1_555 1_555
C91_3 C70_3 1_555 1_555
H65_3 C91_3 1_555 1_555
C92_3 C69_3 1_555 1_555
C93_3 C92_3 1_555 1_555
H66_3 C93_3 1_555 1_555
H67_3 C93_3 1_555 1_555
H68_3 C93_3 1_555 1_555
C108_3 C107_3 1_555 1_555
H79_3 C108_3 1_555 1_555
C110_3 C107_3 1_555 1_555
C111_3 C110_3 1_555 1_555
H81_3 C111_3 1_555 1_555
C112_3 C110_3 1_555 1_555
H82_3 C112_3 1_555 1_555
C113_3 C111_3 1_555 1_555
H83_3 C113_3 1_555 1_555
C114_3 C113_3 1_555 1_555
C115_3 C112_3 1_555 1_555
H84_3 C115_3 1_555 1_555
C116_3 C114_3 1_555 1_555
C117_3 C116_3 1_555 1_555
H85_3 C117_3 1_555 1_555
C118_3 N4_3 1_555 1_555
H86_3 C118_3 1_555 1_555
C119_3 N4_3 1_555 1_555
H87_3 C119_3 1_555 1_555
C120_3 C116_3 1_555 1_555
O22_2 Zn9_2 1_555 1_555
C66_3 C67_3 1_555 1_555
C88_3 C89_3 1_555 1_555
C90_3 C91_3 1_555 1_555
C90_3 C92_3 1_555 1_555
C114_3 C115_3 1_555 1_555
C117_3 C118_3 1_555 1_555
C119_3 C120_3 1_555 1_555
O17_2 C83_3 1_555 1_555
O18_2 C83_3 1_555 1_555
C83_3 C84_3 1_555 1_555
Zn12_2 O17_2 1_555 1_555
Zn14_2 O18_2 1_555 1_555
N6 C105_3 1_555 1_555
C105_3 H77_3 1_555 1_555
O23_2 C104_4 1_555 1_555
O24_2 C104_4 1_555 1_555
C72_4 C73_4 1_555 1_555
C73_4 H53_4 1_555 1_555
H54_4 C73_4 1_555 1_555
H55_4 C73_4 1_555 1_555
C74_4 H56_4 1_555 1_555
C75_4 C72_4 1_555 1_555
C76_4 C75_4 1_555 1_555
C77_4 C76_4 1_555 1_555
H57_4 C77_4 1_555 1_555
H59_4 C80_4 1_555 1_555
C81_4 C76_4 1_555 1_555
H60_4 C81_4 1_555 1_555
C94_4 C74_4 1_555 1_555
C95_4 C94_4 1_555 1_555
H69_4 C95_4 1_555 1_555
H70_4 C95_4 1_555 1_555
H71_4 C95_4 1_555 1_555
C96_4 C94_4 1_555 1_555
C97_4 C72_4 1_555 1_555
H72_4 C97_4 1_555 1_555
C98_4 C96_4 1_555 1_555
C99_4 C98_4 1_555 1_555
H73_4 C99_4 1_555 1_555
C100_4 C99_4 1_555 1_555
H74_4 C100_4 1_555 1_555
C101_4 C100_4 1_555 1_555
C102_4 C101_4 1_555 1_555
H75_4 C102_4 1_555 1_555
C103_4 C98_4 1_555 1_555
H76_4 C103_4 1_555 1_555
C104_4 C101_4 1_555 1_555
C74_4 C75_4 1_555 1_555
C80_4 C81_4 1_555 1_555
C96_4 C97_4 1_555 1_555
C102_4 C103_4 1_555 1_555
Zn12_2 O13_4 1_555 1_555
Zn14_2 O14_4 1_555 1_555
O13_4 C61_4 1_555 1_555
O14_4 C61_4 1_555 1_555
O15_4 Zn12_2 1_555 1_555
O16_4 Zn14_2 1_555 1_555
O21_2 C83_4 1_555 1_555
O22_2 C83_4 1_555 1_555
N4_4 Zn14_2 1_555 1_555
C61_4 C62_4 1_555 1_555
C62_4 C63_4 1_555 1_555
C63_4 H45_4 1_555 1_555
C64_4 C63_4 1_555 1_555
H46_4 C64_4 1_555 1_555
C65_4 C64_4 1_555 1_555
C66_4 C65_4 1_555 1_555
H47_4 C66_4 1_555 1_555
C67_4 C62_4 1_555 1_555
H48_4 C67_4 1_555 1_555
C68_4 C65_4 1_555 1_555
C69_4 C68_4 1_555 1_555
H49_4 C69_4 1_555 1_555
C70_4 C68_4 1_555 1_555
C71_4 C70_4 1_555 1_555
H50_4 C71_4 1_555 1_555
H51_4 C71_4 1_555 1_555
H52_4 C71_4 1_555 1_555
H58_4 C78_4 1_555 1_555
C79_4 C78_4 1_555 1_555
C82_4 O15_4 1_555 1_555
C83_4 C84_4 1_555 1_555
C84_4 C85_4 1_555 1_555
C85_4 H61_4 1_555 1_555
C86_4 C85_4 1_555 1_555
H62_4 C86_4 1_555 1_555
C87_4 C86_4 1_555 1_555
C88_4 C87_4 1_555 1_555
H63_4 C88_4 1_555 1_555
C89_4 C84_4 1_555 1_555
H64_4 C89_4 1_555 1_555
C90_4 C87_4 1_555 1_555
C91_4 C70_4 1_555 1_555
H65_4 C91_4 1_555 1_555
C92_4 C69_4 1_555 1_555
C93_4 C92_4 1_555 1_555
H66_4 C93_4 1_555 1_555
H67_4 C93_4 1_555 1_555
H68_4 C93_4 1_555 1_555
H78_4 C106_4 1_555 1_555
C107_4 C106_4 1_555 1_555
C108_4 C107_4 1_555 1_555
H79_4 C108_4 1_555 1_555
C110_4 C107_4 1_555 1_555
C111_4 C110_4 1_555 1_555
H81_4 C111_4 1_555 1_555
C112_4 C110_4 1_555 1_555
H82_4 C112_4 1_555 1_555
C113_4 C111_4 1_555 1_555
H83_4 C113_4 1_555 1_555
C114_4 C113_4 1_555 1_555
C115_4 C112_4 1_555 1_555
H84_4 C115_4 1_555 1_555
C116_4 C114_4 1_555 1_555
C117_4 C116_4 1_555 1_555
H85_4 C117_4 1_555 1_555
C118_4 N4_4 1_555 1_555
H86_4 C118_4 1_555 1_555
C119_4 N4_4 1_555 1_555
H87_4 C119_4 1_555 1_555
C120_4 C116_4 1_555 1_555
H88_4 C120_4 1_555 1_555
N6_2 Zn12_2 1_555 1_555
O16_4 C82_4 1_555 1_555
C66_4 C67_4 1_555 1_555
C79_4 C82_4 1_555 1_555
C88_4 C89_4 1_555 1_555
C90_4 C91_4 1_555 1_555
C90_4 C92_4 1_555 1_555
C114_4 C115_4 1_555 1_555
C117_4 C118_4 1_555 1_555
C119_4 C120_4 1_555 1_555
N6_2 C105_4 1_555 1_555
C105_4 H77_4 1_555 1_555
C109_2 N6_2 1_555 1_555
H80_2 C109_2 1_555 1_555
H80_3 C109_3 1_555 1_555
H80_4 C109_4 1_555 1_555

#END
