
###############################################################################
#
# This file contains modified crystal structure data generated from the
# MOF subset of the Cambridge Structural Database (CSD) v543 
# hosted by the Cambridge Crystallographic Data Centre (CCDC).
#
# This work is licensed under the Creative Commons
# Attribution-NonCommercial-ShareAlike 4.0 International License.
# To view a copy of this license, visit
# http://creativecommons.org/licenses/by-nc-sa/4.0/
# or send a letter to
# Creative Commons, PO Box 1866, Mountain View, CA 94042, USA.
#
# CIF created using the CSD Python API on 29 September 2022
# The structure has been converted into the P1 space group
# The structure has a 3D framework
# The original CSD entry ZUKNAW is in the tetragonal crystal system
# The original CSD entry ZUKNAW is in a Sohncke space group
# The framework has been calculated to contain at least 10.0% void space
# The void calculation uses a probe of radius 1.32A, grid spacing 0.4
# The framework is charged, counterions have been retained in the structure
# H atom positions have been added when not included in the experimental data
#
###############################################################################

data_ZUKNAW
_chemical_formula_moiety         '(C528 H1024 Cu12 I8 Mn8 Mo48 N42 O192 2+)n'
_symmetry_cell_setting           triclinic
_symmetry_space_group_name_H-M   'P 1'
_symmetry_Int_Tables_number      1
_space_group_name_Hall           'P 1'
loop_
_symmetry_equiv_pos_site_id
_symmetry_equiv_pos_as_xyz
1 x,y,z
_cell_length_a                   37.6898(7)
_cell_length_b                   37.6898(7)
_cell_length_c                   14.2576(4)
_cell_angle_alpha                90
_cell_angle_beta                 90
_cell_angle_gamma                90
_cell_volume                     20253.2
loop_
_atom_site_label
_atom_site_type_symbol
_atom_site_fract_x
_atom_site_fract_y
_atom_site_fract_z
N1 N 0.7351(3) 0.0315(4) 0.8434(10)
C1 C 0.7185(4) 0.0503(3) 0.7621(10)
H1 H 0.7036 0.0333 0.7268
H2 H 0.7375 0.0586 0.7195
C2 C 0.7547(4) 0.0003(4) 0.8022(12)
H3 H 0.7731 0.0095 0.7588
C3 C 0.7589(4) 0.0553(4) 0.9003(11)
H5 H 0.7701 0.0412 0.9506
H6 H 0.7442 0.0739 0.9305
C4 C 0.7025(5) 0.0183(5) 0.9089(14)
H7 H 0.7116 0.0106 0.9708
H8 H 0.6856 0.0381 0.9189
C5 C 0.6953(5) 0.0824(4) 0.7898(13)
H9 H 0.7087 0.0975 0.8343
H10 H 0.6738 0.0737 0.8225
C6 C 0.7882(4) 0.0735(4) 0.8421(12)
H11 H 0.7774 0.0907 0.7981
H12 H 0.8012 0.0555 0.8050
C7 C 0.8143(4) 0.0929(4) 0.9089(13)
H13 H 0.8247 0.0759 0.9539
H14 H 0.8014 0.1114 0.9449
C8 C 0.6839(4) 0.1052(4) 0.7044(13)
H15 H 0.7054 0.1163 0.6772
H16 H 0.6738 0.0893 0.6562
C11 C 0.8439(6) 0.1102(6) 0.8499(19)
H21 H 0.8610 0.1218 0.8916
H22 H 0.8335 0.1279 0.8075
H23 H 0.8560 0.0919 0.8130
C12 C 0.6567(6) 0.1347(6) 0.7254(19)
H24 H 0.6511 0.1475 0.6673
H25 H 0.6667 0.1513 0.7713
H26 H 0.6350 0.1242 0.7507
H4 H 0.7378 0.9861 0.7646
C9 C 0.7725(6) 0.9759(6) 0.8722(17)
H17 H 0.7549 0.9668 0.9178
H18 H 0.7913 0.9887 0.9069
C10 C 0.6840(6) 0.9882(6) 0.8623(16)
H19 H 0.7014 0.9723 0.8317
H20 H 0.6674 0.9971 0.8140
C13 C 0.7898(6) 0.9430(6) 0.810(2)
H27 H 0.7996 0.9511 0.7497
H28 H 0.8082 0.9299 0.8459
C14 C 0.6633(11) 0.9678(11) 0.940(4)
H29 H 0.6772 0.9472 0.9627
H30 H 0.6582 0.9836 0.9940
C15 C 0.6310(10) 0.9562(9) 0.897(3)
H31 H 0.6161 0.9442 0.9435
H32 H 0.6365 0.9397 0.8457
H33 H 0.6183 0.9768 0.8716
C16 C 0.7558(6) 0.9213(7) 0.798(2)
H34 H 0.7611 0.8995 0.7638
H35 H 0.7383 0.9353 0.7636
H36 H 0.7462 0.9152 0.8603
N1_2 N 0.4685(4) 0.2351(3) 0.5934(10)
C1_2 C 0.4497(3) 0.2185(4) 0.5121(10)
H1_2 H 0.4667 0.2036 0.4768
H2_2 H 0.4414 0.2375 0.4695
C2_2 C 0.4997(4) 0.2547(4) 0.5522(12)
H3_2 H 0.4905 0.2731 0.5088
H4_2 H 0.5139 0.2378 0.5146
C3_2 C 0.4447(4) 0.2589(4) 0.6503(11)
H5_2 H 0.4588 0.2701 0.7006
H6_2 H 0.4261 0.2442 0.6805
C4_2 C 0.4817(5) 0.2025(5) 0.6589(14)
H7_2 H 0.4894 0.2116 0.7208
H8_2 H 0.4619 0.1856 0.6689
C5_2 C 0.4176(4) 0.1953(5) 0.5398(13)
H9_2 H 0.4025 0.2087 0.5843
H10_2 H 0.4263 0.1738 0.5725
C6_2 C 0.4265(4) 0.2882(4) 0.5921(12)
H11_2 H 0.4093 0.2774 0.5481
H12_2 H 0.4445 0.3012 0.5550
C7_2 C 0.4071(4) 0.3143(4) 0.6589(13)
H13_2 H 0.4241 0.3247 0.7039
H14_2 H 0.3886 0.3014 0.6949
C8_2 C 0.3948(4) 0.1839(4) 0.4544(13)
H15_2 H 0.3837 0.2054 0.4272
H16_2 H 0.4107 0.1738 0.4062
C9_2 C 0.5241(6) 0.2725(6) 0.6222(17)
H17_2 H 0.5332 0.2549 0.6678
H18_2 H 0.5113 0.2913 0.6569
C10_2 C 0.5118(6) 0.1840(6) 0.6123(16)
H19_2 H 0.5277 0.2014 0.5817
H20_2 H 0.5029 0.1674 0.5640
C11_2 C 0.3898(6) 0.3439(6) 0.5999(19)
H21_2 H 0.3782 0.3610 0.6416
H22_2 H 0.3721 0.3335 0.5575
H23_2 H 0.4081 0.3560 0.5630
C12_2 C 0.3653(6) 0.1567(6) 0.4754(19)
H24_2 H 0.3525 0.1511 0.4173
H25_2 H 0.3487 0.1667 0.5213
H26_2 H 0.3758 0.1350 0.5007
C13_2 C 0.5570(6) 0.2898(6) 0.560(2)
H27_2 H 0.5489 0.2996 0.4997
H28_2 H 0.5701 0.3082 0.5959
C14_2 C 0.5322(11) 0.1633(11) 0.690(4)
H29_2 H 0.5528 0.1772 0.7127
H30_2 H 0.5164 0.1582 0.7440
C15_2 C 0.5438(9) 0.1310(10) 0.647(3)
H31_2 H 0.5558 0.1161 0.6935
H32_2 H 0.5603 0.1365 0.5957
H33_2 H 0.5232 0.1183 0.6216
C16_2 C 0.5787(7) 0.2558(6) 0.548(2)
H34_2 H 0.6005 0.2611 0.5138
H35_2 H 0.5647 0.2383 0.5136
H36_2 H 0.5848 0.2462 0.6103
H4_3 H 0.2622 0.0139 0.2646
C9_3 C 0.2275(6) 0.0241(6) 0.3722(17)
H17_3 H 0.2451 0.0332 0.4178
H18_3 H 0.2087 0.0113 0.4069
C10_3 C 0.3160(6) 0.0118(6) 0.3623(16)
H19_3 H 0.2986 0.0277 0.3317
H20_3 H 0.3326 0.0029 0.3140
C13_3 C 0.2102(6) 0.0570(6) 0.310(2)
H27_3 H 0.2004 0.0489 0.2497
H28_3 H 0.1918 0.0701 0.3459
C14_3 C 0.3367(11) 0.0322(11) 0.440(4)
H29_3 H 0.3228 0.0528 0.4627
H30_3 H 0.3418 0.0164 0.4940
C15_3 C 0.3690(10) 0.0438(9) 0.397(3)
H31_3 H 0.3839 0.0558 0.4435
H32_3 H 0.3635 0.0603 0.3457
H33_3 H 0.3817 0.0232 0.3716
C16_3 C 0.2442(6) 0.0787(7) 0.298(2)
H34_3 H 0.2389 0.1005 0.2638
H35_3 H 0.2617 0.0647 0.2636
H36_3 H 0.2538 0.0848 0.3603
N1_3 N 0.2649(3) 0.9685(4) 0.3434(10)
C1_3 C 0.2815(4) 0.9497(3) 0.2621(10)
H1_3 H 0.2964 0.9667 0.2268
H2_3 H 0.2625 0.9414 0.2195
C2_3 C 0.2453(4) 0.9997(4) 0.3022(12)
H3_3 H 0.2269 0.9905 0.2588
C3_3 C 0.2411(4) 0.9447(4) 0.4003(11)
H5_3 H 0.2299 0.9588 0.4506
H6_3 H 0.2558 0.9261 0.4305
C4_3 C 0.2975(5) 0.9817(5) 0.4089(14)
H7_3 H 0.2884 0.9894 0.4708
H8_3 H 0.3144 0.9619 0.4189
C5_3 C 0.3047(5) 0.9176(4) 0.2898(13)
H9_3 H 0.2913 0.9025 0.3343
H10_3 H 0.3262 0.9263 0.3225
C6_3 C 0.2118(4) 0.9265(4) 0.3421(12)
H11_3 H 0.2226 0.9093 0.2981
H12_3 H 0.1988 0.9445 0.3050
C7_3 C 0.1857(4) 0.9071(4) 0.4089(13)
H13_3 H 0.1753 0.9241 0.4539
H14_3 H 0.1986 0.8886 0.4449
C8_3 C 0.3161(4) 0.8948(4) 0.2044(13)
H15_3 H 0.2946 0.8837 0.1772
H16_3 H 0.3262 0.9107 0.1562
C11_3 C 0.1561(6) 0.8898(6) 0.3499(19)
H21_3 H 0.1390 0.8782 0.3916
H22_3 H 0.1665 0.8721 0.3075
H23_3 H 0.1440 0.9081 0.3130
C12_3 C 0.3433(6) 0.8653(6) 0.2254(19)
H24_3 H 0.3489 0.8525 0.1673
H25_3 H 0.3333 0.8487 0.2713
H26_3 H 0.3650 0.8758 0.2507
N1_4 N 0.5315(4) 0.7649(3) 0.0934(10)
C1_4 C 0.5503(3) 0.7815(4) 0.0121(10)
C2_4 C 0.5003(4) 0.7453(4) 0.0522(12)
H3_4 H 0.5095 0.7269 0.0088
H4_4 H 0.4861 0.7622 0.0146
C3_4 C 0.5553(4) 0.7411(4) 0.1503(11)
H5_4 H 0.5412 0.7299 0.2006
H6_4 H 0.5739 0.7558 0.1805
C4_4 C 0.5183(5) 0.7975(5) 0.1589(14)
H7_4 H 0.5106 0.7884 0.2208
H8_4 H 0.5381 0.8144 0.1689
C5_4 C 0.5824(4) 0.8047(5) 0.0398(13)
H9_4 H 0.5975 0.7913 0.0843
H10_4 H 0.5737 0.8262 0.0725
C6_4 C 0.5735(4) 0.7118(4) 0.0921(12)
H11_4 H 0.5907 0.7226 0.0481
H12_4 H 0.5555 0.6988 0.0550
C7_4 C 0.5929(4) 0.6857(4) 0.1589(13)
H13_4 H 0.5759 0.6753 0.2039
H14_4 H 0.6114 0.6986 0.1949
C9_4 C 0.4759(6) 0.7275(6) 0.1222(17)
H17_4 H 0.4668 0.7451 0.1678
H18_4 H 0.4887 0.7087 0.1569
C10_4 C 0.4882(6) 0.8160(6) 0.1123(16)
H19_4 H 0.4723 0.7986 0.0817
H20_4 H 0.4971 0.8326 0.0640
C11_4 C 0.6102(6) 0.6561(6) 0.0999(19)
H21_4 H 0.6218 0.6390 0.1416
H22_4 H 0.6279 0.6665 0.0575
H23_4 H 0.5919 0.6440 0.0630
H25_4 H 0.6513 0.8333 0.0213
H26_4 H 0.6242 0.8650 0.0007
C13_4 C 0.4430(6) 0.7102(6) 0.060(2)
H28_4 H 0.4299 0.6918 0.0959
C14_4 C 0.4678(11) 0.8367(11) 0.190(4)
H29_4 H 0.4472 0.8228 0.2127
H30_4 H 0.4836 0.8418 0.2440
C15_4 C 0.4562(9) 0.8690(10) 0.147(3)
H31_4 H 0.4442 0.8839 0.1935
H32_4 H 0.4397 0.8635 0.0957
H33_4 H 0.4768 0.8817 0.1216
C16_4 C 0.4213(7) 0.7442(6) 0.048(2)
H34_4 H 0.3995 0.7389 0.0138
H35_4 H 0.4353 0.7617 0.0136
H36_4 H 0.4152 0.7538 0.1103
H1_4 H 0.5333 0.7964 0.9768
H2_4 H 0.5586 0.7625 0.9695
C8_4 C 0.6052(4) 0.8161(4) 0.9544(13)
H15_4 H 0.6163 0.7946 0.9272
H16_4 H 0.5893 0.8262 0.9062
C12_4 C 0.6347(6) 0.8433(6) 0.9754(19)
H24_4 H 0.6475 0.8489 0.9173
H27_4 H 0.4511 0.7004 0.9997
N1_5 N 0.2351(3) 0.4685(4) 0.4066(10)
C1_5 C 0.2185(4) 0.4497(3) 0.4879(10)
H1_5 H 0.2036 0.4667 0.5232
H2_5 H 0.2375 0.4414 0.5305
C2_5 C 0.2547(4) 0.4997(4) 0.4478(12)
H3_5 H 0.2731 0.4905 0.4912
H4_5 H 0.2378 0.5139 0.4854
C3_5 C 0.2589(4) 0.4447(4) 0.3497(11)
H5_5 H 0.2701 0.4588 0.2994
H6_5 H 0.2442 0.4261 0.3195
C4_5 C 0.2025(5) 0.4817(5) 0.3411(14)
H7_5 H 0.2116 0.4894 0.2792
H8_5 H 0.1856 0.4619 0.3311
C5_5 C 0.1953(5) 0.4176(4) 0.4602(13)
H9_5 H 0.2087 0.4025 0.4157
H10_5 H 0.1738 0.4263 0.4275
C6_5 C 0.2882(4) 0.4265(4) 0.4079(12)
H11_5 H 0.2774 0.4093 0.4519
H12_5 H 0.3012 0.4445 0.4450
C7_5 C 0.3143(4) 0.4071(4) 0.3411(13)
H13_5 H 0.3247 0.4241 0.2961
H14_5 H 0.3014 0.3886 0.3051
C8_5 C 0.1839(4) 0.3948(4) 0.5456(13)
H15_5 H 0.2054 0.3837 0.5728
H16_5 H 0.1738 0.4107 0.5938
C9_5 C 0.2725(6) 0.5241(6) 0.3778(17)
H17_5 H 0.2549 0.5332 0.3322
H18_5 H 0.2913 0.5113 0.3431
C10_5 C 0.1840(6) 0.5118(6) 0.3877(16)
H19_5 H 0.2014 0.5277 0.4183
H20_5 H 0.1674 0.5029 0.4360
C11_5 C 0.3439(6) 0.3898(6) 0.4001(19)
H21_5 H 0.3610 0.3782 0.3584
H22_5 H 0.3335 0.3721 0.4425
H23_5 H 0.3560 0.4081 0.4370
C12_5 C 0.1567(6) 0.3653(6) 0.5246(19)
H24_5 H 0.1511 0.3525 0.5827
H25_5 H 0.1667 0.3487 0.4787
H26_5 H 0.1350 0.3758 0.4993
C13_5 C 0.2898(6) 0.5570(6) 0.440(2)
H27_5 H 0.2996 0.5489 0.5003
H28_5 H 0.3082 0.5701 0.4041
C14_5 C 0.1633(11) 0.5322(11) 0.310(4)
H29_5 H 0.1772 0.5528 0.2873
H30_5 H 0.1582 0.5164 0.2560
C15_5 C 0.1310(10) 0.5438(9) 0.353(3)
H31_5 H 0.1161 0.5558 0.3065
H32_5 H 0.1365 0.5603 0.4043
H33_5 H 0.1183 0.5232 0.3784
C16_5 C 0.2558(6) 0.5787(7) 0.452(2)
H34_5 H 0.2611 0.6005 0.4862
H35_5 H 0.2383 0.5647 0.4864
H36_5 H 0.2462 0.5848 0.3897
H1_6 H 0.7964 0.5333 0.0232
H2_6 H 0.7625 0.5586 0.0305
C8_6 C 0.8161(4) 0.6052(4) 0.0456(13)
H15_6 H 0.7946 0.6163 0.0728
H16_6 H 0.8262 0.5893 0.0938
C12_6 C 0.8433(6) 0.6347(6) 0.0246(19)
H24_6 H 0.8489 0.6475 0.0827
H27_6 H 0.7004 0.4511 0.0003
N1_6 N 0.7649(3) 0.5315(4) 0.9066(10)
C1_6 C 0.7815(4) 0.5503(3) 0.9879(10)
C2_6 C 0.7453(4) 0.5003(4) 0.9478(12)
H3_6 H 0.7269 0.5095 0.9912
H4_6 H 0.7622 0.4861 0.9854
C3_6 C 0.7411(4) 0.5553(4) 0.8497(11)
H5_6 H 0.7299 0.5412 0.7994
H6_6 H 0.7558 0.5739 0.8195
C4_6 C 0.7975(5) 0.5183(5) 0.8411(14)
H7_6 H 0.7884 0.5106 0.7792
H8_6 H 0.8144 0.5381 0.8311
C5_6 C 0.8047(5) 0.5824(4) 0.9602(13)
H9_6 H 0.7913 0.5975 0.9157
H10_6 H 0.8262 0.5737 0.9275
C6_6 C 0.7118(4) 0.5735(4) 0.9079(12)
H11_6 H 0.7226 0.5907 0.9519
H12_6 H 0.6988 0.5555 0.9450
C7_6 C 0.6857(4) 0.5929(4) 0.8411(13)
H13_6 H 0.6753 0.5759 0.7961
H14_6 H 0.6986 0.6114 0.8051
C9_6 C 0.7275(6) 0.4759(6) 0.8778(17)
H17_6 H 0.7451 0.4668 0.8322
H18_6 H 0.7087 0.4887 0.8431
C10_6 C 0.8160(6) 0.4882(6) 0.8877(16)
H19_6 H 0.7986 0.4723 0.9183
H20_6 H 0.8326 0.4971 0.9360
C11_6 C 0.6561(6) 0.6102(6) 0.9001(19)
H21_6 H 0.6390 0.6218 0.8584
H22_6 H 0.6665 0.6279 0.9425
H23_6 H 0.6440 0.5919 0.9370
H25_6 H 0.8333 0.6513 0.9787
H26_6 H 0.8650 0.6242 0.9993
C13_6 C 0.7102(6) 0.4430(6) 0.940(2)
H28_6 H 0.6918 0.4299 0.9041
C14_6 C 0.8367(11) 0.4678(11) 0.810(4)
H29_6 H 0.8228 0.4472 0.7873
H30_6 H 0.8418 0.4836 0.7560
C15_6 C 0.8690(10) 0.4562(9) 0.853(3)
H31_6 H 0.8839 0.4442 0.8065
H32_6 H 0.8635 0.4397 0.9043
H33_6 H 0.8817 0.4768 0.8784
C16_6 C 0.7442(6) 0.4213(7) 0.952(2)
H34_6 H 0.7389 0.3995 0.9862
H35_6 H 0.7617 0.4353 0.9864
H36_6 H 0.7538 0.4152 0.8897
N1_7 N 0.0315(4) 0.7351(3) 0.1566(10)
C1_7 C 0.0503(3) 0.7185(4) 0.2379(10)
H1_7 H 0.0333 0.7036 0.2732
H2_7 H 0.0586 0.7375 0.2805
C2_7 C 0.0003(4) 0.7547(4) 0.1978(12)
H3_7 H 0.0095 0.7731 0.2412
C3_7 C 0.0553(4) 0.7589(4) 0.0997(11)
H5_7 H 0.0412 0.7701 0.0494
H6_7 H 0.0739 0.7442 0.0695
C4_7 C 0.0183(5) 0.7025(5) 0.0911(14)
H7_7 H 0.0106 0.7116 0.0292
H8_7 H 0.0381 0.6856 0.0811
C5_7 C 0.0824(4) 0.6953(5) 0.2102(13)
H9_7 H 0.0975 0.7087 0.1657
H10_7 H 0.0737 0.6738 0.1775
C6_7 C 0.0735(4) 0.7882(4) 0.1579(12)
H11_7 H 0.0907 0.7774 0.2019
H12_7 H 0.0555 0.8012 0.1950
C7_7 C 0.0929(4) 0.8143(4) 0.0911(13)
H13_7 H 0.0759 0.8247 0.0461
H14_7 H 0.1114 0.8014 0.0551
C8_7 C 0.1052(4) 0.6839(4) 0.2956(13)
H15_7 H 0.1163 0.7054 0.3228
H16_7 H 0.0893 0.6738 0.3438
C11_7 C 0.1102(6) 0.8439(6) 0.1501(19)
H21_7 H 0.1218 0.8610 0.1084
H22_7 H 0.1279 0.8335 0.1925
H23_7 H 0.0919 0.8560 0.1870
C12_7 C 0.1347(6) 0.6567(6) 0.2746(19)
H24_7 H 0.1475 0.6511 0.3327
H25_7 H 0.1513 0.6667 0.2287
H26_7 H 0.1242 0.6350 0.2493
H4_7 H 0.9861 0.7378 0.2354
C9_7 C 0.9759(6) 0.7725(6) 0.1278(17)
H17_7 H 0.9668 0.7549 0.0822
H18_7 H 0.9887 0.7913 0.0931
C10_7 C 0.9882(6) 0.6840(6) 0.1377(16)
H19_7 H 0.9723 0.7014 0.1683
H20_7 H 0.9971 0.6674 0.1860
C13_7 C 0.9430(6) 0.7898(6) 0.190(2)
H27_7 H 0.9511 0.7996 0.2503
H28_7 H 0.9299 0.8082 0.1541
C14_7 C 0.9678(11) 0.6633(11) 0.060(4)
H29_7 H 0.9472 0.6772 0.0373
H30_7 H 0.9836 0.6582 0.0060
C15_7 C 0.9562(9) 0.6310(10) 0.103(3)
H31_7 H 0.9442 0.6161 0.0565
H32_7 H 0.9397 0.6365 0.1543
H33_7 H 0.9768 0.6183 0.1284
C16_7 C 0.9213(7) 0.7558(6) 0.202(2)
H34_7 H 0.8995 0.7611 0.2362
H35_7 H 0.9353 0.7383 0.2364
H36_7 H 0.9152 0.7462 0.1397
H4_8 H 0.0139 0.2622 0.7354
C9_8 C 0.0241(6) 0.2275(6) 0.6278(17)
H17_8 H 0.0332 0.2451 0.5822
H18_8 H 0.0113 0.2087 0.5931
C10_8 C 0.0118(6) 0.3160(6) 0.6377(16)
H19_8 H 0.0277 0.2986 0.6683
H20_8 H 0.0029 0.3326 0.6860
C13_8 C 0.0570(6) 0.2102(6) 0.690(2)
H27_8 H 0.0489 0.2004 0.7503
H28_8 H 0.0701 0.1918 0.6541
C14_8 C 0.0322(11) 0.3367(11) 0.560(4)
H29_8 H 0.0528 0.3228 0.5373
H30_8 H 0.0164 0.3418 0.5060
C15_8 C 0.0438(9) 0.3690(10) 0.603(3)
H31_8 H 0.0558 0.3839 0.5565
H32_8 H 0.0603 0.3635 0.6543
H33_8 H 0.0232 0.3817 0.6284
C16_8 C 0.0787(7) 0.2442(6) 0.702(2)
H34_8 H 0.1005 0.2389 0.7362
H35_8 H 0.0647 0.2617 0.7364
H36_8 H 0.0848 0.2538 0.6397
N1_8 N 0.9685(4) 0.2649(3) 0.6566(10)
C1_8 C 0.9497(3) 0.2815(4) 0.7379(10)
H1_8 H 0.9667 0.2964 0.7732
H2_8 H 0.9414 0.2625 0.7805
C2_8 C 0.9997(4) 0.2453(4) 0.6978(12)
H3_8 H 0.9905 0.2269 0.7412
C3_8 C 0.9447(4) 0.2411(4) 0.5997(11)
H5_8 H 0.9588 0.2299 0.5494
H6_8 H 0.9261 0.2558 0.5695
C4_8 C 0.9817(5) 0.2975(5) 0.5911(14)
H7_8 H 0.9894 0.2884 0.5292
H8_8 H 0.9619 0.3144 0.5811
C5_8 C 0.9176(4) 0.3047(5) 0.7102(13)
H9_8 H 0.9025 0.2913 0.6657
H10_8 H 0.9263 0.3262 0.6775
C6_8 C 0.9265(4) 0.2118(4) 0.6579(12)
H11_8 H 0.9093 0.2226 0.7019
H12_8 H 0.9445 0.1988 0.6950
C7_8 C 0.9071(4) 0.1857(4) 0.5911(13)
H13_8 H 0.9241 0.1753 0.5461
H14_8 H 0.8886 0.1986 0.5551
C8_8 C 0.8948(4) 0.3161(4) 0.7956(13)
H15_8 H 0.8837 0.2946 0.8228
H16_8 H 0.9107 0.3262 0.8438
C11_8 C 0.8898(6) 0.1561(6) 0.6501(19)
H21_8 H 0.8782 0.1390 0.6084
H22_8 H 0.8721 0.1665 0.6925
H23_8 H 0.9081 0.1440 0.6870
C12_8 C 0.8653(6) 0.3433(6) 0.7746(19)
H24_8 H 0.8525 0.3489 0.8327
H25_8 H 0.8487 0.3333 0.7287
H26_8 H 0.8758 0.3650 0.7493
N2 N 0.5785(4) 0.0849(3) 0.2510(11)
C17 C 0.6205(5) 0.1045(5) 0.1280(15)
H37 H 0.6238 0.0797 0.1062
H38 H 0.6386 0.1096 0.1763
C18 C 0.6037(4) 0.1321(4) 0.3629(13)
H39 H 0.5797 0.1392 0.3842
H40 H 0.6116 0.1484 0.3126
C19 C 0.6042(4) 0.0924(4) 0.3287(13)
H41 H 0.6285 0.0865 0.3070
H42 H 0.5986 0.0768 0.3825
C20 C 0.5850(4) 0.1090(4) 0.1671(11)
H43 H 0.5672 0.1038 0.1180
H44 H 0.5819 0.1340 0.1866
C21 C 0.6308(6) 0.1317(6) 0.4469(17)
H45 H 0.6241 0.1138 0.4946
H46 H 0.6553 0.1268 0.4248
C22 C 0.5845(5) 0.0496(5) 0.2288(14)
H47 H 0.5817 0.0351 0.2863
H48 H 0.6092 0.0469 0.2069
C23 C 0.5280(7) 0.0736(6) 0.3762(19)
H49 H 0.5269 0.0477 0.3645
H50 H 0.5461 0.0775 0.4254
C24 C 0.5420(5) 0.0923(5) 0.2815(13)
H51 H 0.5259 0.0853 0.2299
H52 H 0.5397 0.1183 0.2896
C25 C 0.6275(7) 0.1692(7) 0.485(3)
H53 H 0.6440 0.1723 0.5378
H54 H 0.6032 0.1732 0.5069
H55 H 0.6333 0.1863 0.4356
C26 C 0.6248(6) 0.1328(6) 0.0372(17)
H56 H 0.6042 0.1422 0.0078
C28 C 0.5597(7) 0.0354(8) 0.154(2)
H59 H 0.5347 0.0359 0.1760
H60 H 0.5615 0.0495 0.0958
C29 C 0.6618(9) 0.1437(12) 0.002(5)
H63 H 0.6745 0.1563 0.0516
C30 C 0.4920(7) 0.0850(7) 0.416(2)
H64 H 0.4908 0.1084 0.4413
C32 C 0.4578(13) 0.063(2) 0.421(10)
H68 H 0.4399 0.0763 0.4568
H69 H 0.4626 0.0405 0.4525
H70 H 0.4491 0.0587 0.3576
H162 H 0.484217 0.0950834 0.347443
H61 H 0.6592 0.1594 0.9472
H62 H 0.6751 0.1225 0.9837
H161 H 0.624662 0.110545 0.988489
C27 C 0.5717(9) 0.9986(9) 0.138(3)
H57 H 0.5627 0.9831 0.1892
H58 H 0.5979 0.9977 0.1390
C31 C 0.5579(13) 0.9853(14) 0.044(3)
H65 H 0.5623 0.9597 0.0390
H67 H 0.5324 0.9899 0.0394
H66 H 0.5703 0.9976 0.9932
N2_2 N 0.4151(3) 0.0785(4) 0.0010(11)
C18_2 C 0.3679(4) 0.1037(4) 0.1129(13)
H39_2 H 0.3608 0.0797 0.1342
H40_2 H 0.3516 0.1116 0.0626
C19_2 C 0.4076(4) 0.1042(4) 0.0787(13)
H41_2 H 0.4135 0.1285 0.0570
H42_2 H 0.4232 0.0986 0.1325
C21_2 C 0.3683(6) 0.1308(6) 0.1969(17)
H45_2 H 0.3862 0.1241 0.2446
H46_2 H 0.3732 0.1553 0.1748
H47_2 H 0.4649 0.0817 0.0363
C23_2 C 0.4264(6) 0.0280(7) 0.1262(19)
H49_2 H 0.4523 0.0269 0.1145
H50_2 H 0.4225 0.0461 0.1754
C24_2 C 0.4077(5) 0.0420(5) 0.0315(13)
H52_2 H 0.3817 0.0397 0.0396
C25_2 C 0.3308(7) 0.1275(7) 0.235(3)
H53_2 H 0.3277 0.1440 0.2878
H54_2 H 0.3268 0.1032 0.2569
H55_2 H 0.3137 0.1333 0.1856
C17_2 C 0.3955(5) 0.1205(5) 0.8780(15)
H37_2 H 0.4203 0.1238 0.8562
H38_2 H 0.3904 0.1386 0.9263
C20_2 C 0.3910(4) 0.0850(4) 0.9171(11)
H43_2 H 0.3962 0.0672 0.8680
H44_2 H 0.3660 0.0819 0.9366
C22_2 C 0.4504(5) 0.0845(5) 0.9788(14)
H48_2 H 0.4531 0.1092 0.9569
H51_2 H 0.4147 0.0259 0.9799
C26_2 C 0.3672(6) 0.1248(6) 0.7872(17)
H56_2 H 0.3578 0.1042 0.7578
C27_2 C 0.5014(9) 0.0717(9) 0.888(3)
H57_2 H 0.5169 0.0627 0.9392
H58_2 H 0.5023 0.0979 0.8890
C28_2 C 0.4646(8) 0.0597(7) 0.904(2)
H59_2 H 0.4641 0.0347 0.9260
H60_2 H 0.4505 0.0615 0.8458
C29_2 C 0.3563(12) 0.1618(9) 0.752(5)
H61_2 H 0.3406 0.1592 0.6972
H62_2 H 0.3775 0.1751 0.7337
H63_2 H 0.3437 0.1745 0.8016
C31_2 C 0.5147(14) 0.0579(13) 0.794(3)
H65_2 H 0.5403 0.0623 0.7890
H66_2 H 0.5024 0.0703 0.7432
H67_2 H 0.5101 0.0324 0.7894
H161_2 H 0.389455 0.124662 0.738489
C30_2 C 0.4150(7) 0.9920(7) 0.166(2)
H64_2 H 0.3916 0.9908 0.1913
C32_2 C 0.437(2) 0.9578(13) 0.171(10)
H68_2 H 0.4237 0.9399 0.2068
H69_2 H 0.4595 0.9626 0.2025
H70_2 H 0.4413 0.9491 0.1076
H162_2 H 0.404917 0.984217 0.0974427
C27_3 C 0.4283(9) 0.0014(9) 0.638(3)
H57_3 H 0.4373 0.0169 0.6892
H58_3 H 0.4021 0.0023 0.6390
C31_3 C 0.4421(13) 0.0147(14) 0.544(3)
H65_3 H 0.4377 0.0403 0.5390
H66_3 H 0.4297 0.0024 0.4932
H67_3 H 0.4676 0.0101 0.5394
H53_3 H 0.3560 0.8277 0.0378
H54_3 H 0.3968 0.8268 0.0069
N2_3 N 0.4215(4) 0.9151(3) 0.7510(11)
C17_3 C 0.3795(5) 0.8955(5) 0.6280(15)
H37_3 H 0.3762 0.9203 0.6062
H38_3 H 0.3614 0.8904 0.6763
C18_3 C 0.3963(4) 0.8679(4) 0.8629(13)
H39_3 H 0.4203 0.8608 0.8842
H40_3 H 0.3884 0.8516 0.8126
C19_3 C 0.3958(4) 0.9076(4) 0.8287(13)
H41_3 H 0.3715 0.9135 0.8070
H42_3 H 0.4014 0.9232 0.8825
C20_3 C 0.4150(4) 0.8910(4) 0.6671(11)
H43_3 H 0.4328 0.8962 0.6180
H44_3 H 0.4181 0.8660 0.6866
C21_3 C 0.3692(6) 0.8683(6) 0.9469(17)
H45_3 H 0.3759 0.8862 0.9946
H46_3 H 0.3447 0.8732 0.9248
C22_3 C 0.4155(5) 0.9504(5) 0.7288(14)
H47_3 H 0.4183 0.9649 0.7863
H48_3 H 0.3908 0.9531 0.7069
C23_3 C 0.4720(7) 0.9264(6) 0.8762(19)
H49_3 H 0.4731 0.9523 0.8645
H50_3 H 0.4539 0.9225 0.9254
C24_3 C 0.4580(5) 0.9077(5) 0.7815(13)
H51_3 H 0.4741 0.9147 0.7299
H52_3 H 0.4603 0.8817 0.7896
C25_3 C 0.3725(7) 0.8308(7) 0.985(3)
H55_3 H 0.3667 0.8137 0.9356
C26_3 C 0.3752(6) 0.8672(6) 0.5372(17)
H56_3 H 0.3958 0.8578 0.5078
C28_3 C 0.4403(7) 0.9646(8) 0.654(2)
H59_3 H 0.4653 0.9641 0.6760
H60_3 H 0.4385 0.9505 0.5958
C29_3 C 0.3382(9) 0.8563(12) 0.502(5)
H61_3 H 0.3408 0.8406 0.4472
H62_3 H 0.3249 0.8775 0.4837
H63_3 H 0.3255 0.8437 0.5516
C30_3 C 0.5080(7) 0.9150(7) 0.916(2)
H64_3 H 0.5092 0.8916 0.9413
C32_3 C 0.5422(13) 0.937(2) 0.921(10)
H68_3 H 0.5601 0.9237 0.9568
H69_3 H 0.5374 0.9595 0.9525
H70_3 H 0.5509 0.9413 0.8576
H161_3 H 0.375338 0.889455 0.488489
H162_3 H 0.515783 0.904917 0.847443
C30_4 C 0.5850(7) 0.0080(7) 0.666(2)
H64_4 H 0.6084 0.0092 0.6913
C32_4 C 0.563(2) 0.0422(13) 0.671(10)
H68_4 H 0.5763 0.0601 0.7068
H69_4 H 0.5405 0.0374 0.7025
H70_4 H 0.5587 0.0509 0.6076
H162_4 H 0.595083 0.0157834 0.597443
N2_4 N 0.5849(3) 0.9215(4) 0.5010(11)
C17_4 C 0.6045(5) 0.8795(5) 0.3780(15)
H37_4 H 0.5797 0.8762 0.3562
H38_4 H 0.6096 0.8614 0.4263
C18_4 C 0.6321(4) 0.8963(4) 0.6129(13)
H39_4 H 0.6392 0.9203 0.6342
H40_4 H 0.6484 0.8884 0.5626
C19_4 C 0.5924(4) 0.8958(4) 0.5787(13)
H41_4 H 0.5865 0.8715 0.5570
H42_4 H 0.5768 0.9014 0.6325
C20_4 C 0.6090(4) 0.9150(4) 0.4171(11)
H43_4 H 0.6038 0.9328 0.3680
H44_4 H 0.6340 0.9181 0.4366
C21_4 C 0.6317(6) 0.8692(6) 0.6969(17)
H45_4 H 0.6138 0.8759 0.7446
H46_4 H 0.6268 0.8447 0.6748
C22_4 C 0.5496(5) 0.9155(5) 0.4788(14)
H47_4 H 0.5351 0.9183 0.5363
H48_4 H 0.5469 0.8908 0.4569
C23_4 C 0.5736(6) 0.9720(7) 0.6262(19)
H49_4 H 0.5477 0.9731 0.6145
H50_4 H 0.5775 0.9539 0.6754
C24_4 C 0.5923(5) 0.9580(5) 0.5315(13)
H51_4 H 0.5853 0.9741 0.4799
H52_4 H 0.6183 0.9603 0.5396
C25_4 C 0.6692(7) 0.8725(7) 0.735(3)
H53_4 H 0.6723 0.8560 0.7878
H54_4 H 0.6732 0.8968 0.7569
H55_4 H 0.6863 0.8667 0.6856
C26_4 C 0.6328(6) 0.8752(6) 0.2872(17)
H56_4 H 0.6422 0.8958 0.2578
C27_4 C 0.4986(9) 0.9283(9) 0.388(3)
H57_4 H 0.4831 0.9373 0.4392
H58_4 H 0.4977 0.9021 0.3890
C28_4 C 0.5354(8) 0.9403(7) 0.404(2)
H59_4 H 0.5359 0.9653 0.4260
H60_4 H 0.5495 0.9385 0.3458
C29_4 C 0.6437(12) 0.8382(9) 0.252(5)
H61_4 H 0.6594 0.8408 0.1972
H62_4 H 0.6225 0.8249 0.2337
H63_4 H 0.6563 0.8255 0.3016
C31_4 C 0.4853(14) 0.9421(13) 0.294(3)
H65_4 H 0.4597 0.9377 0.2890
H66_4 H 0.4976 0.9297 0.2432
H67_4 H 0.4899 0.9676 0.2894
H161_4 H 0.610545 0.875338 0.238489
C17_5 C 0.1205(5) 0.3955(5) 0.1220(15)
H37_5 H 0.1238 0.4203 0.1438
H38_5 H 0.1386 0.3904 0.0737
C20_5 C 0.0850(4) 0.3910(4) 0.0829(11)
H43_5 H 0.0672 0.3962 0.1320
H44_5 H 0.0819 0.3660 0.0634
C22_5 C 0.0845(5) 0.4504(5) 0.0212(14)
H48_5 H 0.1092 0.4531 0.0431
H51_5 H 0.0259 0.4147 0.0201
C26_5 C 0.1248(6) 0.3672(6) 0.2128(17)
H56_5 H 0.1042 0.3578 0.2422
C27_5 C 0.0717(9) 0.5014(9) 0.112(3)
H57_5 H 0.0627 0.5169 0.0608
H58_5 H 0.0979 0.5023 0.1110
C28_5 C 0.0597(7) 0.4646(8) 0.096(2)
H59_5 H 0.0347 0.4641 0.0740
H60_5 H 0.0615 0.4505 0.1542
C29_5 C 0.1618(9) 0.3563(12) 0.248(5)
H61_5 H 0.1592 0.3406 0.3028
H62_5 H 0.1751 0.3775 0.2663
H63_5 H 0.1745 0.3437 0.1984
C31_5 C 0.0579(13) 0.5147(14) 0.206(3)
H65_5 H 0.0623 0.5403 0.2110
H66_5 H 0.0703 0.5024 0.2568
H67_5 H 0.0324 0.5101 0.2106
H161_5 H 0.124662 0.389455 0.261511
N2_5 N 0.0785(4) 0.4151(3) 0.9990(11)
C18_5 C 0.1037(4) 0.3679(4) 0.8871(13)
H39_5 H 0.0797 0.3608 0.8658
H40_5 H 0.1116 0.3516 0.9374
C19_5 C 0.1042(4) 0.4076(4) 0.9213(13)
H41_5 H 0.1285 0.4135 0.9430
H42_5 H 0.0986 0.4232 0.8675
C21_5 C 0.1308(6) 0.3683(6) 0.8031(17)
H45_5 H 0.1241 0.3862 0.7554
H46_5 H 0.1553 0.3732 0.8252
H47_5 H 0.0817 0.4649 0.9637
C23_5 C 0.0280(7) 0.4264(6) 0.8738(19)
H49_5 H 0.0269 0.4523 0.8855
H50_5 H 0.0461 0.4225 0.8246
C24_5 C 0.0420(5) 0.4077(5) 0.9685(13)
H52_5 H 0.0397 0.3817 0.9604
C25_5 C 0.1275(7) 0.3308(7) 0.765(3)
H53_5 H 0.1440 0.3277 0.7122
H54_5 H 0.1032 0.3268 0.7431
H55_5 H 0.1333 0.3137 0.8144
C30_5 C 0.9920(7) 0.4150(7) 0.834(2)
H64_5 H 0.9908 0.3916 0.8087
C32_5 C 0.9578(13) 0.437(2) 0.829(10)
H68_5 H 0.9399 0.4237 0.7932
H69_5 H 0.9626 0.4595 0.7975
H70_5 H 0.9491 0.4413 0.8924
H162_5 H 0.984217 0.404917 0.902557
C30_6 C 0.0080(7) 0.5850(7) 0.334(2)
H64_6 H 0.0092 0.6084 0.3087
C32_6 C 0.0422(13) 0.563(2) 0.329(10)
H68_6 H 0.0601 0.5763 0.2932
H69_6 H 0.0374 0.5405 0.2975
H70_6 H 0.0509 0.5587 0.3924
H162_6 H 0.0157834 0.595083 0.402557
N2_6 N 0.9215(4) 0.5849(3) 0.4990(11)
C17_6 C 0.8795(5) 0.6045(5) 0.6220(15)
H37_6 H 0.8762 0.5797 0.6438
H38_6 H 0.8614 0.6096 0.5737
C18_6 C 0.8963(4) 0.6321(4) 0.3871(13)
H39_6 H 0.9203 0.6392 0.3658
H40_6 H 0.8884 0.6484 0.4374
C19_6 C 0.8958(4) 0.5924(4) 0.4213(13)
H41_6 H 0.8715 0.5865 0.4430
H42_6 H 0.9014 0.5768 0.3675
C20_6 C 0.9150(4) 0.6090(4) 0.5829(11)
H43_6 H 0.9328 0.6038 0.6320
H44_6 H 0.9181 0.6340 0.5634
C21_6 C 0.8692(6) 0.6317(6) 0.3031(17)
H45_6 H 0.8759 0.6138 0.2554
H46_6 H 0.8447 0.6268 0.3252
C22_6 C 0.9155(5) 0.5496(5) 0.5212(14)
H47_6 H 0.9183 0.5351 0.4637
H48_6 H 0.8908 0.5469 0.5431
C23_6 C 0.9720(7) 0.5736(6) 0.3738(19)
H49_6 H 0.9731 0.5477 0.3855
H50_6 H 0.9539 0.5775 0.3246
C24_6 C 0.9580(5) 0.5923(5) 0.4685(13)
H51_6 H 0.9741 0.5853 0.5201
H52_6 H 0.9603 0.6183 0.4604
C25_6 C 0.8725(7) 0.6692(7) 0.265(3)
H53_6 H 0.8560 0.6723 0.2122
H54_6 H 0.8968 0.6732 0.2431
H55_6 H 0.8667 0.6863 0.3144
C26_6 C 0.8752(6) 0.6328(6) 0.7128(17)
H56_6 H 0.8958 0.6422 0.7422
C27_6 C 0.9283(9) 0.4986(9) 0.612(3)
H57_6 H 0.9373 0.4831 0.5608
H58_6 H 0.9021 0.4977 0.6110
C28_6 C 0.9403(7) 0.5354(8) 0.596(2)
H59_6 H 0.9653 0.5359 0.5740
H60_6 H 0.9385 0.5495 0.6542
C29_6 C 0.8382(9) 0.6437(12) 0.748(5)
H61_6 H 0.8408 0.6594 0.8028
H62_6 H 0.8249 0.6225 0.7663
H63_6 H 0.8255 0.6563 0.6984
C31_6 C 0.9421(13) 0.4853(14) 0.706(3)
H65_6 H 0.9377 0.4597 0.7110
H66_6 H 0.9297 0.4976 0.7568
H67_6 H 0.9676 0.4899 0.7106
H161_6 H 0.875338 0.610545 0.761511
H61_7 H 0.1594 0.6592 0.0528
H62_7 H 0.1225 0.6751 0.0163
H161_7 H 0.110545 0.624662 0.011511
N2_7 N 0.0849(3) 0.5785(4) 0.7490(11)
C17_7 C 0.1045(5) 0.6205(5) 0.8720(15)
H37_7 H 0.0797 0.6238 0.8938
H38_7 H 0.1096 0.6386 0.8237
C18_7 C 0.1321(4) 0.6037(4) 0.6371(13)
H39_7 H 0.1392 0.5797 0.6158
H40_7 H 0.1484 0.6116 0.6874
C19_7 C 0.0924(4) 0.6042(4) 0.6713(13)
H41_7 H 0.0865 0.6285 0.6930
H42_7 H 0.0768 0.5986 0.6175
C20_7 C 0.1090(4) 0.5850(4) 0.8329(11)
H43_7 H 0.1038 0.5672 0.8820
H44_7 H 0.1340 0.5819 0.8134
C21_7 C 0.1317(6) 0.6308(6) 0.5531(17)
H45_7 H 0.1138 0.6241 0.5054
H46_7 H 0.1268 0.6553 0.5752
C22_7 C 0.0496(5) 0.5845(5) 0.7712(14)
H47_7 H 0.0351 0.5817 0.7137
H48_7 H 0.0469 0.6092 0.7931
C23_7 C 0.0736(6) 0.5280(7) 0.6238(19)
H49_7 H 0.0477 0.5269 0.6355
H50_7 H 0.0775 0.5461 0.5746
C24_7 C 0.0923(5) 0.5420(5) 0.7185(13)
H51_7 H 0.0853 0.5259 0.7701
H52_7 H 0.1183 0.5397 0.7104
C25_7 C 0.1692(7) 0.6275(7) 0.515(3)
H53_7 H 0.1723 0.6440 0.4622
H54_7 H 0.1732 0.6032 0.4931
H55_7 H 0.1863 0.6333 0.5644
C26_7 C 0.1328(6) 0.6248(6) 0.9628(17)
H56_7 H 0.1422 0.6042 0.9922
C28_7 C 0.0354(8) 0.5597(7) 0.846(2)
H59_7 H 0.0359 0.5347 0.8240
H60_7 H 0.0495 0.5615 0.9042
C29_7 C 0.1437(12) 0.6618(9) 0.998(5)
H63_7 H 0.1563 0.6745 0.9484
C30_7 C 0.0850(7) 0.4920(7) 0.584(2)
H64_7 H 0.1084 0.4908 0.5587
C32_7 C 0.063(2) 0.4578(13) 0.579(10)
H68_7 H 0.0763 0.4399 0.5432
H69_7 H 0.0405 0.4626 0.5475
H70_7 H 0.0587 0.4491 0.6424
H162_7 H 0.0950834 0.484217 0.652557
H66_7 H 0.9976 0.5703 0.0068
C27_7 C 0.9986(9) 0.5717(9) 0.862(3)
H57_7 H 0.9831 0.5627 0.8108
H58_7 H 0.9977 0.5979 0.8610
C31_7 C 0.9853(14) 0.5579(13) 0.956(3)
H65_7 H 0.9597 0.5623 0.9610
H67_7 H 0.9899 0.5324 0.9606
C27_8 C 0.0014(9) 0.4283(9) 0.362(3)
H57_8 H 0.0169 0.4373 0.3108
H58_8 H 0.0023 0.4021 0.3610
C31_8 C 0.0147(14) 0.4421(13) 0.456(3)
H65_8 H 0.0403 0.4377 0.4610
H66_8 H 0.0024 0.4297 0.5068
H67_8 H 0.0101 0.4676 0.4606
N2_8 N 0.9151(3) 0.4215(4) 0.2490(11)
C17_8 C 0.8955(5) 0.3795(5) 0.3720(15)
H37_8 H 0.9203 0.3762 0.3938
H38_8 H 0.8904 0.3614 0.3237
C18_8 C 0.8679(4) 0.3963(4) 0.1371(13)
H39_8 H 0.8608 0.4203 0.1158
H40_8 H 0.8516 0.3884 0.1874
C19_8 C 0.9076(4) 0.3958(4) 0.1713(13)
H41_8 H 0.9135 0.3715 0.1930
H42_8 H 0.9232 0.4014 0.1175
C20_8 C 0.8910(4) 0.4150(4) 0.3329(11)
H43_8 H 0.8962 0.4328 0.3820
H44_8 H 0.8660 0.4181 0.3134
C21_8 C 0.8683(6) 0.3692(6) 0.0531(17)
H45_8 H 0.8862 0.3759 0.0054
H46_8 H 0.8732 0.3447 0.0752
C22_8 C 0.9504(5) 0.4155(5) 0.2712(14)
H47_8 H 0.9649 0.4183 0.2137
H48_8 H 0.9531 0.3908 0.2931
C23_8 C 0.9264(6) 0.4720(7) 0.1238(19)
H49_8 H 0.9523 0.4731 0.1355
H50_8 H 0.9225 0.4539 0.0746
C24_8 C 0.9077(5) 0.4580(5) 0.2185(13)
H51_8 H 0.9147 0.4741 0.2701
H52_8 H 0.8817 0.4603 0.2104
C25_8 C 0.8308(7) 0.3725(7) 0.015(3)
H55_8 H 0.8137 0.3667 0.0644
C26_8 C 0.8672(6) 0.3752(6) 0.4628(17)
H56_8 H 0.8578 0.3958 0.4922
C28_8 C 0.9646(8) 0.4403(7) 0.346(2)
H59_8 H 0.9641 0.4653 0.3240
H60_8 H 0.9505 0.4385 0.4042
C29_8 C 0.8563(12) 0.3382(9) 0.498(5)
H61_8 H 0.8406 0.3408 0.5528
H62_8 H 0.8775 0.3249 0.5163
H63_8 H 0.8437 0.3255 0.4484
C30_8 C 0.9150(7) 0.5080(7) 0.084(2)
H64_8 H 0.8916 0.5092 0.0587
C32_8 C 0.937(2) 0.5422(13) 0.079(10)
H68_8 H 0.9237 0.5601 0.0432
H69_8 H 0.9595 0.5374 0.0475
H70_8 H 0.9413 0.5509 0.1424
H161_8 H 0.889455 0.375338 0.511511
H162_8 H 0.904917 0.515783 0.152557
H53_8 H 0.8277 0.3560 0.9622
H54_8 H 0.8268 0.3968 0.9931
H97 H 0.0127 0.9692 0.4262
C46 C 0.0224(15) 0.9214(16) 0.356(5)
H99 H 0.0310 0.9305 0.2951
H100 H 0.0026 0.9055 0.3385
C47 C 0.0507(15) 0.8922(16) 0.368(5)
H101 H 0.0693 0.8955 0.3209
H102 H 0.0396 0.8689 0.3596
H103 H 0.0610 0.8938 0.4309
H79 H 0.9692 0.0127 0.5738
C38 C 0.9214(16) 0.0224(15) 0.644(5)
H81 H 0.9305 0.0310 0.7049
H82 H 0.9055 0.0026 0.6615
C39 C 0.8922(16) 0.0507(15) 0.632(5)
H83 H 0.8955 0.0693 0.6791
H84 H 0.8689 0.0396 0.6404
H85 H 0.8938 0.0610 0.5691
N3 N 0.9303(10) 0.9303(10) 0.5000
C33 C 0.8841(9) 0.8993(8) 0.626(2)
H71 H 0.8670 0.9176 0.6048
H72 H 0.8889 0.9028 0.6931
C34 C 0.9187(8) 0.9027(10) 0.570(3)
H73 H 0.9376 0.9024 0.6177
H74 H 0.9208 0.8799 0.5357
C35 C 0.8685(14) 0.8622(12) 0.609(3)
H75 H 0.8483 0.8635 0.5651
H76 H 0.8867 0.8461 0.5829
C36 C 0.941(3) 0.9651(14) 0.572(4)
H77 H 0.9158 0.9685 0.5929
H78 H 0.9508 0.9498 0.6214
C37 C 0.9537(17) 0.9996(18) 0.618(8)
H80 H 0.9676 0.9940 0.6749
C40 C 0.8559(13) 0.8486(13) 0.705(3)
H86 H 0.8468 0.8243 0.6983
H87 H 0.8371 0.8640 0.7289
H88 H 0.8759 0.8486 0.7491
C41 C 0.8993(8) 0.8841(9) 0.374(2)
H89 H 0.9176 0.8670 0.3952
H90 H 0.9028 0.8889 0.3069
C42 C 0.9027(10) 0.9187(8) 0.430(3)
H91 H 0.9024 0.9376 0.3823
H92 H 0.8799 0.9208 0.4643
C43 C 0.8622(12) 0.8685(14) 0.391(3)
H93 H 0.8635 0.8483 0.4349
H94 H 0.8461 0.8867 0.4171
C44 C 0.9651(14) 0.941(3) 0.428(4)
H95 H 0.9685 0.9158 0.4071
H96 H 0.9498 0.9508 0.3786
C45 C 0.9996(18) 0.9537(17) 0.382(8)
H98 H 0.9940 0.9676 0.3251
C48 C 0.8486(13) 0.8559(13) 0.295(3)
H104 H 0.8243 0.8468 0.3017
H105 H 0.8640 0.8371 0.2711
H106 H 0.8486 0.8759 0.2509
N3_2 N 0.5697(10) 0.4303(10) 0.2500
C33_2 C 0.6007(8) 0.3841(9) 0.376(2)
H71_2 H 0.5824 0.3670 0.3548
H72_2 H 0.5972 0.3889 0.4431
C34_2 C 0.5973(10) 0.4187(8) 0.320(3)
H73_2 H 0.5976 0.4376 0.3677
H74_2 H 0.6201 0.4208 0.2857
C35_2 C 0.6378(12) 0.3685(14) 0.359(3)
H75_2 H 0.6365 0.3483 0.3151
H76_2 H 0.6539 0.3867 0.3329
C36_2 C 0.5349(14) 0.441(3) 0.322(4)
H77_2 H 0.5315 0.4158 0.3429
H78_2 H 0.5502 0.4508 0.3714
C37_2 C 0.5004(18) 0.4537(17) 0.368(8)
H79_2 H 0.4873 0.4692 0.3238
H80_2 H 0.5060 0.4676 0.4249
C38_2 C 0.4776(15) 0.4214(16) 0.394(5)
H81_2 H 0.4690 0.4305 0.4549
H82_2 H 0.4974 0.4055 0.4115
C39_2 C 0.4493(15) 0.3922(16) 0.382(5)
H83_2 H 0.4307 0.3955 0.4291
H84_2 H 0.4604 0.3689 0.3904
H85_2 H 0.4390 0.3938 0.3191
C40_2 C 0.6514(13) 0.3559(13) 0.455(3)
H86_2 H 0.6757 0.3468 0.4483
H87_2 H 0.6360 0.3371 0.4789
H88_2 H 0.6514 0.3759 0.4991
C41_2 C 0.6159(9) 0.3993(8) 0.124(2)
H89_2 H 0.6330 0.4176 0.1452
H90_2 H 0.6111 0.4028 0.0569
C42_2 C 0.5813(8) 0.4027(10) 0.180(3)
H91_2 H 0.5624 0.4024 0.1323
H92_2 H 0.5792 0.3799 0.2143
C43_2 C 0.6315(14) 0.3622(12) 0.141(3)
H93_2 H 0.6517 0.3635 0.1849
H94_2 H 0.6133 0.3461 0.1671
C44_2 C 0.559(3) 0.4651(14) 0.178(4)
H95_2 H 0.5842 0.4685 0.1571
H96_2 H 0.5492 0.4498 0.1286
C45_2 C 0.5463(17) 0.4996(18) 0.132(8)
H97_2 H 0.5308 0.5127 0.1762
H98_2 H 0.5324 0.4940 0.0751
C46_2 C 0.5786(16) 0.5224(15) 0.106(5)
H99_2 H 0.5695 0.5310 0.0451
H100_2 H 0.5945 0.5026 0.0885
C47_2 C 0.6078(16) 0.5507(15) 0.118(5)
H101_2 H 0.6045 0.5693 0.0709
H102_2 H 0.6311 0.5396 0.1096
H103_2 H 0.6062 0.5610 0.1809
C48_2 C 0.6441(13) 0.3486(13) 0.045(3)
H104_2 H 0.6532 0.3243 0.0517
H105_2 H 0.6629 0.3640 0.0211
H106_2 H 0.6241 0.3486 0.0009
N3_3 N 0.0697(10) 0.0697(10) -0.0000
C33_3 C 0.1159(9) 0.1007(8) 0.126(2)
H71_3 H 0.1330 0.0824 0.1048
H72_3 H 0.1111 0.0972 0.1931
C34_3 C 0.0813(8) 0.0973(10) 0.070(3)
H73_3 H 0.0624 0.0976 0.1177
H74_3 H 0.0792 0.1201 0.0357
C35_3 C 0.1315(14) 0.1378(12) 0.109(3)
H75_3 H 0.1517 0.1365 0.0651
H76_3 H 0.1133 0.1539 0.0829
C36_3 C 0.059(3) 0.0349(14) 0.072(4)
H77_3 H 0.0842 0.0315 0.0929
H78_3 H 0.0492 0.0502 0.1214
C37_3 C 0.0463(17) 0.0004(18) 0.118(8)
H80_3 H 0.0324 0.0060 0.1749
C40_3 C 0.1441(13) 0.1514(13) 0.205(3)
H86_3 H 0.1532 0.1757 0.1983
H87_3 H 0.1629 0.1360 0.2289
H88_3 H 0.1241 0.1514 0.2491
N3_4 N 0.0697(10) 0.0697(10) 1.0000
C41_3 C 0.1007(8) 0.1159(9) 0.874(2)
H89_3 H 0.0824 0.1330 0.8952
H90_3 H 0.0972 0.1111 0.8069
C42_3 C 0.0973(10) 0.0813(8) 0.930(3)
H91_3 H 0.0976 0.0624 0.8823
H92_3 H 0.1201 0.0792 0.9643
C43_3 C 0.1378(12) 0.1315(14) 0.891(3)
H93_3 H 0.1365 0.1517 0.9349
H94_3 H 0.1539 0.1133 0.9171
C44_3 C 0.0349(14) 0.059(3) 0.928(4)
H95_3 H 0.0315 0.0842 0.9071
H96_3 H 0.0502 0.0492 0.8786
C45_3 C 0.0004(18) 0.0463(17) 0.882(8)
H98_3 H 0.0060 0.0324 0.8251
C48_3 C 0.1514(13) 0.1441(13) 0.795(3)
H104_3 H 0.1757 0.1532 0.8017
H105_3 H 0.1360 0.1629 0.7711
H106_3 H 0.1514 0.1241 0.7509
H79_3 H 0.0308 0.9873 0.0738
C38_3 C 0.0786(16) 0.9776(15) 0.144(5)
H81_3 H 0.0695 0.9690 0.2049
H82_3 H 0.0945 0.9974 0.1615
C39_3 C 0.1078(16) 0.9493(15) 0.132(5)
H83_3 H 0.1045 0.9307 0.1791
H84_3 H 0.1311 0.9604 0.1404
H85_3 H 0.1062 0.9390 0.0691
H97_3 H 0.9873 0.0308 0.9262
C46_3 C 0.9776(15) 0.0786(16) 0.856(5)
H99_3 H 0.9690 0.0695 0.7951
H100_3 H 0.9974 0.0945 0.8385
C47_3 C 0.9493(15) 0.1078(16) 0.868(5)
H101_3 H 0.9307 0.1045 0.8209
H102_3 H 0.9604 0.1311 0.8596
H103_3 H 0.9390 0.1062 0.9309
N3_5 N 0.4303(10) 0.5697(10) 0.7500
C33_4 C 0.3993(8) 0.6159(9) 0.876(2)
H71_4 H 0.4176 0.6330 0.8548
H72_4 H 0.4028 0.6111 0.9431
C34_4 C 0.4027(10) 0.5813(8) 0.820(3)
H73_4 H 0.4024 0.5624 0.8677
H74_4 H 0.3799 0.5792 0.7857
C35_4 C 0.3622(12) 0.6315(14) 0.859(3)
H75_4 H 0.3635 0.6517 0.8151
H76_4 H 0.3461 0.6133 0.8329
C36_4 C 0.4651(14) 0.559(3) 0.822(4)
H77_4 H 0.4685 0.5842 0.8429
H78_4 H 0.4498 0.5492 0.8714
C37_4 C 0.4996(18) 0.5463(17) 0.868(8)
H79_4 H 0.5127 0.5308 0.8238
H80_4 H 0.4940 0.5324 0.9249
C38_4 C 0.5224(15) 0.5786(16) 0.894(5)
H81_4 H 0.5310 0.5695 0.9549
H82_4 H 0.5026 0.5945 0.9115
C39_4 C 0.5507(15) 0.6078(16) 0.882(5)
H83_4 H 0.5693 0.6045 0.9291
H84_4 H 0.5396 0.6311 0.8904
H85_4 H 0.5610 0.6062 0.8191
C40_4 C 0.3486(13) 0.6441(13) 0.955(3)
H86_4 H 0.3243 0.6532 0.9483
H87_4 H 0.3640 0.6629 0.9789
H88_4 H 0.3486 0.6241 0.9991
C41_4 C 0.3841(9) 0.6007(8) 0.624(2)
H89_4 H 0.3670 0.5824 0.6452
H90_4 H 0.3889 0.5972 0.5569
C42_4 C 0.4187(8) 0.5973(10) 0.680(3)
H91_4 H 0.4376 0.5976 0.6323
H92_4 H 0.4208 0.6201 0.7143
C43_4 C 0.3685(14) 0.6378(12) 0.641(3)
H93_4 H 0.3483 0.6365 0.6849
H94_4 H 0.3867 0.6539 0.6671
C44_4 C 0.441(3) 0.5349(14) 0.678(4)
H95_4 H 0.4158 0.5315 0.6571
H96_4 H 0.4508 0.5502 0.6286
C45_4 C 0.4537(17) 0.5004(18) 0.632(8)
H97_4 H 0.4692 0.4873 0.6762
H98_4 H 0.4676 0.5060 0.5751
C46_4 C 0.4214(16) 0.4776(15) 0.606(5)
H99_4 H 0.4305 0.4690 0.5451
H100_4 H 0.4055 0.4974 0.5885
C47_4 C 0.3922(16) 0.4493(15) 0.618(5)
H101_4 H 0.3955 0.4307 0.5709
H102_4 H 0.3689 0.4604 0.6096
H103_4 H 0.3938 0.4390 0.6809
C48_4 C 0.3559(13) 0.6514(13) 0.545(3)
H104_4 H 0.3468 0.6757 0.5517
H105_4 H 0.3371 0.6360 0.5211
H106_4 H 0.3759 0.6514 0.5009
C54 C 0.0112(16) 0.0787(15) 0.396(5)
H116 H 0.0115 0.0595 0.4435
H117 H 0.0150 0.0661 0.3363
C55 C 0.0500(16) 0.090(3) 0.410(9)
H118 H 0.0519 0.1159 0.4018
H119 H 0.0650 0.0782 0.3637
H120 H 0.0578 0.0837 0.4734
N4 N 0.9345(8) 0.0655(8) 0.2500
C49 C 0.9181(8) 0.0925(8) 0.313(2)
H107 H 0.9158 0.1107 0.2637
H108 H 0.9408 0.0988 0.3442
C50 C 0.9572(14) 0.0509(12) 0.326(3)
H109 H 0.9646 0.0301 0.2923
C51 C 0.8951(10) 0.1132(11) 0.3847(17)
H110 H 0.8843 0.0966 0.4303
H111 H 0.9100 0.1303 0.4197
C52 C 0.8660(11) 0.1329(13) 0.332(3)
H112 H 0.8456 0.1167 0.3227
H113 H 0.8751 0.1394 0.2688
C53 C 0.9707(16) 0.081(2) 0.388(7)
H114 H 0.9640 0.1044 0.3603
H115 H 0.9599 0.0796 0.4513
C56 C 0.853(2) 0.1667(18) 0.380(6)
H121 H 0.8389 0.1809 0.3361
H122 H 0.8732 0.1806 0.4023
H123 H 0.8380 0.1602 0.4342
C57 C 0.9075(8) 0.0819(8) 0.187(2)
H124 H 0.8893 0.0842 0.2363
H125 H 0.9012 0.0592 0.1558
C58 C 0.9491(12) 0.0428(14) 0.174(3)
H126 H 0.9699 0.0354 0.2077
C59 C 0.8868(11) 0.1049(10) 0.1153(17)
H127 H 0.9034 0.1157 0.0697
H128 H 0.8697 0.0900 0.0803
C60 C 0.8671(13) 0.1340(11) 0.168(3)
H129 H 0.8833 0.1544 0.1773
H130 H 0.8606 0.1249 0.2312
C61 C 0.919(2) 0.0293(16) 0.112(7)
H131 H 0.8956 0.0360 0.1397
H132 H 0.9204 0.0401 0.0487
C64 C 0.8333(18) 0.147(2) 0.120(6)
H138 H 0.8191 0.1611 0.1639
H139 H 0.8194 0.1268 0.0977
H140 H 0.8398 0.1620 0.0658
H163 H 0.960493 0.0629721 0.128355
H164 H 0.937028 0.0395074 0.371645
C62 C 0.9213(15) 0.9888(16) 0.104(5)
H133 H 0.9405 0.9885 0.0565
H134 H 0.9339 0.9850 0.1637
C63 C 0.910(3) 0.9500(16) 0.090(9)
H135 H 0.8841 0.9481 0.0982
H136 H 0.9218 0.9350 0.1363
H137 H 0.9163 0.9422 0.0266
N4_2 N 0.4345(8) 0.4345(8) -0.0000
C49_2 C 0.4075(8) 0.4181(8) 0.063(2)
H107_2 H 0.3893 0.4158 0.0137
H108_2 H 0.4012 0.4408 0.0942
C50_2 C 0.4491(12) 0.4572(14) 0.076(3)
H109_2 H 0.4699 0.4646 0.0423
C51_2 C 0.3868(11) 0.3951(10) 0.1347(17)
H110_2 H 0.4034 0.3843 0.1803
H111_2 H 0.3697 0.4100 0.1697
C52_2 C 0.3671(13) 0.3660(11) 0.082(3)
H112_2 H 0.3833 0.3456 0.0727
H113_2 H 0.3606 0.3751 0.0188
C53_2 C 0.419(2) 0.4707(16) 0.138(7)
H114_2 H 0.3956 0.4640 0.1103
H115_2 H 0.4204 0.4599 0.2013
C54_2 C 0.4213(15) 0.5112(16) 0.146(5)
H116_2 H 0.4405 0.5115 0.1935
H117_2 H 0.4339 0.5150 0.0863
C55_2 C 0.410(3) 0.5500(16) 0.160(9)
H118_2 H 0.3841 0.5519 0.1518
H119_2 H 0.4218 0.5650 0.1137
H120_2 H 0.4163 0.5578 0.2234
C56_2 C 0.3333(18) 0.353(2) 0.130(6)
H121_2 H 0.3191 0.3389 0.0861
H122_2 H 0.3194 0.3732 0.1523
H123_2 H 0.3398 0.3380 0.1842
H164_2 H 0.460493 0.437028 0.121645
N4_3 N 0.4345(8) 0.4345(8) 1.0000
C57_2 C 0.4181(8) 0.4075(8) 0.937(2)
H124_2 H 0.4158 0.3893 0.9863
H125_2 H 0.4408 0.4012 0.9058
C58_2 C 0.4572(14) 0.4491(12) 0.924(3)
H126_2 H 0.4646 0.4699 0.9577
C59_2 C 0.3951(10) 0.3868(11) 0.8653(17)
H127_2 H 0.3843 0.4034 0.8197
H128_2 H 0.4100 0.3697 0.8303
C60_2 C 0.3660(11) 0.3671(13) 0.918(3)
H129_2 H 0.3456 0.3833 0.9273
H130_2 H 0.3751 0.3606 0.9812
C61_2 C 0.4707(16) 0.419(2) 0.862(7)
H131_2 H 0.4640 0.3956 0.8897
H132_2 H 0.4599 0.4204 0.7987
C62_2 C 0.5112(16) 0.4213(15) 0.854(5)
H133_2 H 0.5115 0.4405 0.8065
H134_2 H 0.5150 0.4339 0.9137
C63_2 C 0.5500(16) 0.410(3) 0.840(9)
H135_2 H 0.5519 0.3841 0.8482
H136_2 H 0.5650 0.4218 0.8863
H137_2 H 0.5578 0.4163 0.7766
C64_2 C 0.353(2) 0.3333(18) 0.870(6)
H138_2 H 0.3389 0.3191 0.9139
H139_2 H 0.3732 0.3194 0.8477
H140_2 H 0.3380 0.3398 0.8158
H163_2 H 0.437028 0.460493 0.878355
C62_3 C 0.0787(15) 0.0112(16) 0.604(5)
H133_3 H 0.0595 0.0115 0.5565
H134_3 H 0.0661 0.0150 0.6637
C63_3 C 0.090(3) 0.0500(16) 0.590(9)
H135_3 H 0.1159 0.0519 0.5982
H136_3 H 0.0782 0.0650 0.6363
H137_3 H 0.0837 0.0578 0.5266
N4_4 N 0.0655(8) 0.9345(8) 0.7500
C49_3 C 0.0819(8) 0.9075(8) 0.813(2)
H107_3 H 0.0842 0.8893 0.7637
H108_3 H 0.0592 0.9012 0.8442
C50_3 C 0.0428(14) 0.9491(12) 0.826(3)
H109_3 H 0.0354 0.9699 0.7923
C51_3 C 0.1049(10) 0.8868(11) 0.8847(17)
H110_3 H 0.1157 0.9034 0.9303
H111_3 H 0.0900 0.8697 0.9197
C52_3 C 0.1340(11) 0.8671(13) 0.832(3)
H112_3 H 0.1544 0.8833 0.8227
H113_3 H 0.1249 0.8606 0.7688
C53_3 C 0.0293(16) 0.919(2) 0.888(7)
H114_3 H 0.0360 0.8956 0.8603
H115_3 H 0.0401 0.9204 0.9513
C56_3 C 0.147(2) 0.8333(18) 0.880(6)
H121_3 H 0.1611 0.8191 0.8361
H122_3 H 0.1268 0.8194 0.9023
H123_3 H 0.1620 0.8398 0.9342
C57_3 C 0.0925(8) 0.9181(8) 0.687(2)
H124_3 H 0.1107 0.9158 0.7363
H125_3 H 0.0988 0.9408 0.6558
C58_3 C 0.0509(12) 0.9572(14) 0.674(3)
H126_3 H 0.0301 0.9646 0.7077
C59_3 C 0.1132(11) 0.8951(10) 0.6153(17)
H127_3 H 0.0966 0.8843 0.5697
H128_3 H 0.1303 0.9100 0.5803
C60_3 C 0.1329(13) 0.8660(11) 0.668(3)
H129_3 H 0.1167 0.8456 0.6773
H130_3 H 0.1394 0.8751 0.7312
C61_3 C 0.081(2) 0.9707(16) 0.612(7)
H131_3 H 0.1044 0.9640 0.6397
H132_3 H 0.0796 0.9599 0.5487
C64_3 C 0.1667(18) 0.853(2) 0.620(6)
H138_3 H 0.1809 0.8389 0.6639
H139_3 H 0.1806 0.8732 0.5977
H140_3 H 0.1602 0.8380 0.5658
H163_3 H 0.0395074 0.937028 0.628355
H164_3 H 0.0629721 0.960493 0.871645
C54_3 C 0.9888(16) 0.9213(15) 0.896(5)
H116_3 H 0.9885 0.9405 0.9435
H117_3 H 0.9850 0.9339 0.8363
C55_3 C 0.9500(16) 0.910(3) 0.910(9)
H118_3 H 0.9481 0.8841 0.9018
H119_3 H 0.9350 0.9218 0.8637
H120_3 H 0.9422 0.9163 0.9734
N4_5 N 0.5655(8) 0.5655(8) 0.5000
C49_4 C 0.5925(8) 0.5819(8) 0.563(2)
H107_4 H 0.6107 0.5842 0.5137
H108_4 H 0.5988 0.5592 0.5942
C50_4 C 0.5509(12) 0.5428(14) 0.576(3)
H109_4 H 0.5301 0.5354 0.5423
C51_4 C 0.6132(11) 0.6049(10) 0.6347(17)
H110_4 H 0.5966 0.6157 0.6803
H111_4 H 0.6303 0.5900 0.6697
C52_4 C 0.6329(13) 0.6340(11) 0.582(3)
H112_4 H 0.6167 0.6544 0.5727
H113_4 H 0.6394 0.6249 0.5188
C53_4 C 0.581(2) 0.5293(16) 0.638(7)
H114_4 H 0.6044 0.5360 0.6103
H115_4 H 0.5796 0.5401 0.7013
C54_4 C 0.5787(15) 0.4888(16) 0.646(5)
H116_4 H 0.5595 0.4885 0.6935
H117_4 H 0.5661 0.4850 0.5863
C55_4 C 0.590(3) 0.4500(16) 0.660(9)
H118_4 H 0.6159 0.4481 0.6518
H119_4 H 0.5782 0.4350 0.6137
H120_4 H 0.5837 0.4422 0.7234
C56_4 C 0.6667(18) 0.647(2) 0.630(6)
H121_4 H 0.6809 0.6611 0.5861
H122_4 H 0.6806 0.6268 0.6523
H123_4 H 0.6602 0.6620 0.6842
C57_4 C 0.5819(8) 0.5925(8) 0.437(2)
H124_4 H 0.5842 0.6107 0.4863
H125_4 H 0.5592 0.5988 0.4058
C58_4 C 0.5428(14) 0.5509(12) 0.424(3)
H126_4 H 0.5354 0.5301 0.4577
C59_4 C 0.6049(10) 0.6132(11) 0.3653(17)
H127_4 H 0.6157 0.5966 0.3197
H128_4 H 0.5900 0.6303 0.3303
C60_4 C 0.6340(11) 0.6329(13) 0.418(3)
H129_4 H 0.6544 0.6167 0.4273
H130_4 H 0.6249 0.6394 0.4812
C61_4 C 0.5293(16) 0.581(2) 0.362(7)
H131_4 H 0.5360 0.6044 0.3897
H132_4 H 0.5401 0.5796 0.2987
C62_4 C 0.4888(16) 0.5787(15) 0.354(5)
H133_4 H 0.4885 0.5595 0.3065
H134_4 H 0.4850 0.5661 0.4137
C63_4 C 0.4500(16) 0.590(3) 0.340(9)
H135_4 H 0.4481 0.6159 0.3482
H136_4 H 0.4350 0.5782 0.3863
H137_4 H 0.4422 0.5837 0.2766
C64_4 C 0.647(2) 0.6667(18) 0.370(6)
H138_4 H 0.6611 0.6809 0.4139
H139_4 H 0.6268 0.6806 0.3477
H140_4 H 0.6620 0.6602 0.3158
H163_4 H 0.562972 0.539507 0.378355
H164_4 H 0.539507 0.562972 0.621645
Mn1 Mn 0.75107(3) 0.00104(3) 0.35318(8)
Mo1 Mo 0.70374(2) 0.039591(18) 0.18231(5)
Mo2 Mo 0.662574(19) 0.006216(19) 0.37134(6)
Mo4 Mo 0.79225(2) 0.03386(2) 0.16307(6)
O3 O 0.75137(15) 0.04629(12) 0.2874(4)
O4 O 0.71531(15) 0.01839(13) 0.4508(4)
O5 O 0.79210(18) 0.01426(14) 0.4331(4)
O6 O 0.67716(15) 0.04643(14) 0.2987(4)
O7 O 0.74474(18) 0.01941(18) 0.1257(4)
O10 O 0.67157(19) 0.0216(2) 0.1116(5)
O15 O 0.7075(2) 0.08287(19) 0.1496(5)
O16 O 0.82499(16) 0.03723(18) 0.2674(6)
O18 O 0.6376(2) 0.02771(18) 0.4524(5)
O19 O 0.8691(2) 0.0152(2) 0.4078(8)
O22 O 0.7920(2) 0.07785(19) 0.1331(6)
O24 O 0.8157(2) 0.0121(3) 0.0784(7)
N6 N 0.7596(2) 0.1724(2) 0.5902(8)
C65 C 0.7559(2) 0.07739(18) 0.3436(6)
H141 H 0.7362 0.0940 0.3297
H142 H 0.7783 0.0891 0.3252
C66 C 0.7567(2) 0.0705(2) 0.4513(6)
C69 C 0.7888(2) 0.0484(2) 0.4771(6)
H147 H 0.8103 0.0624 0.4620
H148 H 0.7885 0.0448 0.5459
C70 C 0.7231(2) 0.0534(2) 0.4888(6)
H149 H 0.7252 0.0515 0.5578
H150 H 0.7029 0.0693 0.4751
C73 C 0.7589(2) 0.1068(2) 0.4974(6)
C77 C 0.7357(3) 0.1651(3) 0.5232(8)
H155 H 0.7183 0.1824 0.5082
C78 C 0.7845(3) 0.1151(3) 0.5638(9)
H156 H 0.8018 0.0979 0.5807
C79 C 0.7356(3) 0.1329(2) 0.4747(8)
H157 H 0.7191 0.1292 0.4254
C80 C 0.7849(3) 0.1482(3) 0.6056(10)
H158 H 0.8039 0.1540 0.6468
Cu3 Cu 0.75819(3) 0.21656(3) 0.67008(10)
Cu1 Cu 0.74181(3) 0.71656(3) 0.07992(10)
Cu2 Cu 0.74108(3) 0.78402(3) 0.04424(10)
I1 I 0.680933(16) 0.750165(19) 0.09254(6)
I2 I 0.798554(17) 0.753383(19) 0.13481(5)
Mo3 Mo 0.70948(3) 0.96718(2) 0.54164(6)
Mo5 Mo 0.83961(2) 0.99571(3) 0.33460(8)
Mo6 Mo 0.79781(3) 0.96294(2) 0.52487(7)
O1 O 0.71086(16) 0.98806(13) 0.2729(4)
O2 O 0.74987(17) 0.95640(14) 0.4192(4)
O8 O 0.67719(17) 0.96473(15) 0.4375(4)
O9 O 0.82378(17) 0.95685(17) 0.4080(6)
O11 O 0.7557(2) 0.98173(17) 0.5797(5)
O12 O 0.8648(2) 0.9734(3) 0.2545(8)
O13 O 0.8282(3) 0.9826(2) 0.5959(7)
O14 O 0.78732(17) 0.98368(15) 0.2555(5)
O17 O 0.6842(2) 0.9868(2) 0.6245(6)
O20 O 0.7096(2) 0.9242(2) 0.5714(5)
O21 O 0.7959(3) 0.92018(18) 0.5590(7)
O23 O 0.63246(17) 0.98638(18) 0.2991(6)
N5 N 0.7371(2) 0.8309(2) 0.1086(7)
C67 C 0.7114(2) 0.9533(2) 0.2288(7)
H143 H 0.7105 0.9562 0.1598
H144 H 0.6901 0.9398 0.2483
C68 C 0.7792(3) 0.9488(2) 0.2182(7)
H145 H 0.7995 0.9328 0.2318
H146 H 0.7771 0.9507 0.1492
C71 C 0.7456(3) 0.9319(2) 0.2563(9)
C72 C 0.7463(3) 0.9243(2) 0.3618(7)
H151 H 0.7241 0.9119 0.3795
H152 H 0.7664 0.9082 0.3757
C74 C 0.7359(3) 0.8628(3) 0.0604(11)
C75 C 0.7408(3) 0.8963(2) 0.2063(8)
C76 C 0.7376(3) 0.8937(3) 0.1064(9)
H154 H 0.7367 0.9151 0.0710
C81 C 0.7395(3) 0.8328(3) 0.1971(10)
H159 H 0.7402 0.8111 0.2308
C82 C 0.7413(3) 0.8642(3) 0.2495(12)
H160 H 0.7428 0.8630 0.3160
N7 N 0.7404(2) 0.6724(2) 0.1598(8)
Cu1_2 Cu 0.78344(3) 0.24181(3) 0.82992(10)
Cu2_2 Cu 0.71598(3) 0.24108(3) 0.79424(10)
I1_2 I 0.749835(19) 0.180933(16) 0.84254(6)
I2_2 I 0.746617(19) 0.298554(17) 0.88481(5)
Mo1_2 Mo 0.460409(18) 0.20374(2) 0.93231(5)
Mo4_2 Mo 0.46614(2) 0.29225(2) 0.91307(6)
O7_2 O 0.48059(18) 0.24474(18) 0.8757(4)
O10_2 O 0.4784(2) 0.17157(19) 0.8616(5)
O15_2 O 0.41713(19) 0.2075(2) 0.8996(5)
O22_2 O 0.42215(19) 0.2920(2) 0.8831(6)
O24_2 O 0.4879(3) 0.3157(2) 0.8284(7)
N5_2 N 0.6691(2) 0.2371(2) 0.8586(7)
C67_2 C 0.5467(2) 0.2114(2) 0.9788(7)
H143_2 H 0.5438 0.2105 0.9098
H144_2 H 0.5602 0.1901 0.9983
C68_2 C 0.5512(2) 0.2792(3) 0.9682(7)
H145_2 H 0.5672 0.2995 0.9818
H146_2 H 0.5493 0.2771 0.8992
C74_2 C 0.6372(3) 0.2359(3) 0.8104(11)
H153 H 0.6373 0.2337 0.7440
C75_2 C 0.6037(2) 0.2408(3) 0.9563(8)
C76_2 C 0.6063(3) 0.2376(3) 0.8564(9)
H154_2 H 0.5849 0.2367 0.8210
C81_2 C 0.6672(3) 0.2395(3) 0.9471(10)
H159_2 H 0.6889 0.2402 0.9808
C82_2 C 0.6358(3) 0.2413(3) 0.9995(12)
Cu5 Cu 0.75892(3) 0.28402(3) 0.70576(10)
I3 I 0.819067(16) 0.250165(19) 0.65746(6)
I4 I 0.701446(17) 0.253383(19) 0.61519(5)
N7_2 N 0.8276(2) 0.2404(2) 0.9098(8)
Mn1_2 Mn 0.74893(3) 0.50104(3) 0.39682(8)
Mo1_3 Mo 0.79626(2) 0.539591(18) 0.56769(5)
Mo2_2 Mo 0.837426(19) 0.506216(19) 0.37866(6)
Mo3_2 Mo 0.79052(3) 0.46718(2) 0.20836(6)
Mo4_3 Mo 0.70775(2) 0.53386(2) 0.58693(6)
Mo5_2 Mo 0.66039(2) 0.49571(3) 0.41540(8)
Mo6_2 Mo 0.70219(3) 0.46294(2) 0.22513(7)
O1_2 O 0.78914(16) 0.48806(13) 0.4771(4)
O2_2 O 0.75013(17) 0.45640(14) 0.3308(4)
O3_2 O 0.74863(15) 0.54629(12) 0.4626(4)
O4_2 O 0.78469(15) 0.51839(13) 0.2992(4)
O5_2 O 0.70790(18) 0.51426(14) 0.3169(4)
O6_2 O 0.82284(15) 0.54643(14) 0.4513(4)
O7_3 O 0.75526(18) 0.51941(18) 0.6243(4)
O8_2 O 0.82281(17) 0.46473(15) 0.3125(4)
O9_2 O 0.67622(17) 0.45685(17) 0.3420(6)
O10_3 O 0.82843(19) 0.5216(2) 0.6384(5)
O11_2 O 0.7443(2) 0.48173(17) 0.1703(5)
O12_2 O 0.6352(2) 0.4734(3) 0.4955(8)
O13_2 O 0.6718(3) 0.4826(2) 0.1541(7)
O14_2 O 0.71268(17) 0.48368(15) 0.4945(5)
O15_3 O 0.7925(2) 0.58287(19) 0.6004(5)
O16_2 O 0.67501(16) 0.53723(18) 0.4826(6)
O17_2 O 0.8158(2) 0.4868(2) 0.1255(6)
O18_2 O 0.8624(2) 0.52771(18) 0.2976(5)
O19_2 O 0.6309(2) 0.5152(2) 0.3422(8)
O20_2 O 0.7904(2) 0.4242(2) 0.1786(5)
O21_2 O 0.7041(3) 0.42018(18) 0.1910(7)
O22_3 O 0.7080(2) 0.57785(19) 0.6169(6)
O23_2 O 0.86754(17) 0.48638(18) 0.4509(6)
O24_3 O 0.6843(2) 0.5121(3) 0.6716(7)
N5_3 N 0.7629(2) 0.3309(2) 0.6414(7)
C65_2 C 0.7441(2) 0.57739(18) 0.4064(6)
H141_2 H 0.7638 0.5940 0.4203
H142_2 H 0.7217 0.5891 0.4248
C66_2 C 0.7433(2) 0.5705(2) 0.2987(6)
C67_3 C 0.7886(2) 0.4533(2) 0.5212(7)
H143_3 H 0.7895 0.4562 0.5902
H144_3 H 0.8099 0.4398 0.5017
C68_3 C 0.7208(3) 0.4488(2) 0.5318(7)
H145_3 H 0.7005 0.4328 0.5182
H146_3 H 0.7229 0.4507 0.6008
C69_2 C 0.7112(2) 0.5484(2) 0.2729(6)
H147_2 H 0.6897 0.5624 0.2880
H148_2 H 0.7115 0.5448 0.2041
C70_2 C 0.7769(2) 0.5534(2) 0.2612(6)
H149_2 H 0.7748 0.5515 0.1922
H150_2 H 0.7971 0.5693 0.2749
C71_2 C 0.7544(3) 0.4319(2) 0.4937(9)
C72_2 C 0.7537(3) 0.4243(2) 0.3882(7)
H151_2 H 0.7759 0.4119 0.3705
H152_2 H 0.7336 0.4082 0.3743
C73_2 C 0.7411(2) 0.6068(2) 0.2526(6)
C74_3 C 0.7641(3) 0.3628(3) 0.6896(11)
H153_2 H 0.7663 0.3627 0.7560
C75_3 C 0.7592(3) 0.3963(2) 0.5437(8)
C76_3 C 0.7624(3) 0.3937(3) 0.6436(9)
H154_3 H 0.7633 0.4151 0.6790
C77_2 C 0.7643(3) 0.6651(3) 0.2268(8)
H155_2 H 0.7817 0.6824 0.2418
C78_2 C 0.7155(3) 0.6151(3) 0.1862(9)
H156_2 H 0.6982 0.5979 0.1693
C79_2 C 0.7644(3) 0.6329(2) 0.2753(8)
H157_2 H 0.7809 0.6292 0.3246
C80_2 C 0.7151(3) 0.6482(3) 0.1444(10)
H158_2 H 0.6961 0.6540 0.1032
C81_3 C 0.7605(3) 0.3328(3) 0.5529(10)
H159_3 H 0.7598 0.3111 0.5192
C82_3 C 0.7587(3) 0.3642(3) 0.5005(12)
H160_2 H 0.7572 0.3630 0.4340
H153_3 H 0.8627 0.7337 0.0060
H148_3 H 0.9552 0.2115 0.9541
H149_3 H 0.9485 0.2748 0.9422
C77_3 C 0.8349(3) 0.2643(3) 0.9768(8)
H155_3 H 0.8176 0.2817 0.9918
C78_3 C 0.8849(3) 0.2155(3) 0.9362(9)
H156_3 H 0.9021 0.1982 0.9193
C80_3 C 0.8518(3) 0.2151(3) 0.8944(10)
H158_3 H 0.8460 0.1961 0.8532
H153_4 H 0.7337 0.8627 0.9940
Cu4 Cu 0.71656(3) 0.74181(3) 0.92008(10)
Cu5_2 Cu 0.78402(3) 0.74108(3) 0.95576(10)
I3_2 I 0.750165(19) 0.680933(16) 0.90746(6)
I4_2 I 0.753383(19) 0.798554(17) 0.86519(5)
N6_2 N 0.2404(2) 0.8276(2) 0.0902(8)
H148_4 H 0.2115 0.9552 0.0459
H149_4 H 0.2748 0.9485 0.0578
C77_4 C 0.2643(3) 0.8349(3) 0.0232(8)
H155_4 H 0.2817 0.8176 0.0082
C78_4 C 0.2155(3) 0.8849(3) 0.0638(9)
H156_4 H 0.1982 0.9021 0.0807
C80_4 C 0.2151(3) 0.8518(3) 0.1056(10)
H158_4 H 0.1961 0.8460 0.1468
Cu3_2 Cu 0.24181(3) 0.78344(3) 0.17008(10)
Cu1_3 Cu 0.21656(3) 0.75819(3) 0.32992(10)
Cu2_3 Cu 0.28402(3) 0.75892(3) 0.29424(10)
I1_3 I 0.250165(19) 0.819067(16) 0.34254(6)
I2_3 I 0.253383(19) 0.701446(17) 0.38481(5)
Mn1_3 Mn 0.50104(3) 0.74893(3) 0.60318(8)
Mo1_4 Mo 0.539591(18) 0.79626(2) 0.43231(5)
Mo2_3 Mo 0.506216(19) 0.837426(19) 0.62134(6)
Mo3_3 Mo 0.46718(2) 0.79052(3) 0.79164(6)
Mo4_4 Mo 0.53386(2) 0.70775(2) 0.41307(6)
Mo5_3 Mo 0.49571(3) 0.66039(2) 0.58460(8)
Mo6_3 Mo 0.46294(2) 0.70219(3) 0.77487(7)
O1_3 O 0.48806(13) 0.78914(16) 0.5229(4)
O2_3 O 0.45640(14) 0.75013(17) 0.6692(4)
O3_3 O 0.54629(12) 0.74863(15) 0.5374(4)
O4_3 O 0.51839(13) 0.78469(15) 0.7008(4)
O5_3 O 0.51426(14) 0.70790(18) 0.6831(4)
O6_3 O 0.54643(14) 0.82284(15) 0.5487(4)
O7_4 O 0.51941(18) 0.75526(18) 0.3757(4)
O8_3 O 0.46473(15) 0.82281(17) 0.6875(4)
O9_3 O 0.45685(17) 0.67622(17) 0.6580(6)
O10_4 O 0.5216(2) 0.82843(19) 0.3616(5)
O11_3 O 0.48173(17) 0.7443(2) 0.8297(5)
O12_3 O 0.4734(3) 0.6352(2) 0.5045(8)
O13_3 O 0.4826(2) 0.6718(3) 0.8459(7)
O14_3 O 0.48368(15) 0.71268(17) 0.5055(5)
O15_4 O 0.58287(19) 0.7925(2) 0.3996(5)
O16_3 O 0.53723(18) 0.67501(16) 0.5174(6)
O17_3 O 0.4868(2) 0.8158(2) 0.8745(6)
O18_3 O 0.52771(18) 0.8624(2) 0.7024(5)
O19_3 O 0.5152(2) 0.6309(2) 0.6578(8)
O20_3 O 0.4242(2) 0.7904(2) 0.8214(5)
O21_3 O 0.42018(18) 0.7041(3) 0.8090(7)
O22_4 O 0.57785(19) 0.7080(2) 0.3831(6)
O23_3 O 0.48638(18) 0.86754(17) 0.5491(6)
O24_4 O 0.5121(3) 0.6843(2) 0.3284(7)
N5_4 N 0.3309(2) 0.7629(2) 0.3586(7)
N6_3 N 0.6724(2) 0.7404(2) 0.8402(8)
C65_3 C 0.57739(18) 0.7441(2) 0.5936(6)
H141_3 H 0.5940 0.7638 0.5797
H142_3 H 0.5891 0.7217 0.5752
C66_3 C 0.5705(2) 0.7433(2) 0.7013(6)
C67_4 C 0.4533(2) 0.7886(2) 0.4788(7)
H143_4 H 0.4562 0.7895 0.4098
H144_4 H 0.4398 0.8099 0.4983
C68_4 C 0.4488(2) 0.7208(3) 0.4682(7)
H145_4 H 0.4328 0.7005 0.4818
H146_4 H 0.4507 0.7229 0.3992
C69_3 C 0.5484(2) 0.7112(2) 0.7271(6)
H147_3 H 0.5624 0.6897 0.7120
H148_5 H 0.5448 0.7115 0.7959
C70_3 C 0.5534(2) 0.7769(2) 0.7388(6)
H149_5 H 0.5515 0.7748 0.8078
H150_3 H 0.5693 0.7971 0.7251
C71_3 C 0.4319(2) 0.7544(3) 0.5063(9)
C72_3 C 0.4243(2) 0.7537(3) 0.6118(7)
H151_3 H 0.4119 0.7759 0.6295
H152_3 H 0.4082 0.7336 0.6257
C73_3 C 0.6068(2) 0.7411(2) 0.7474(6)
C74_4 C 0.3628(3) 0.7641(3) 0.3104(11)
H153_5 H 0.3627 0.7663 0.2440
C75_4 C 0.3963(2) 0.7592(3) 0.4563(8)
C76_4 C 0.3937(3) 0.7624(3) 0.3564(9)
H154_4 H 0.4151 0.7633 0.3210
C77_5 C 0.6651(3) 0.7643(3) 0.7732(8)
H155_5 H 0.6824 0.7817 0.7582
C78_5 C 0.6151(3) 0.7155(3) 0.8138(9)
H156_5 H 0.5979 0.6982 0.8307
C79_3 C 0.6329(2) 0.7644(3) 0.7247(8)
H157_3 H 0.6292 0.7809 0.6754
C80_5 C 0.6482(3) 0.7151(3) 0.8556(10)
H158_5 H 0.6540 0.6961 0.8968
C81_4 C 0.3328(3) 0.7605(3) 0.4471(10)
H159_4 H 0.3111 0.7598 0.4808
C82_4 C 0.3642(3) 0.7587(3) 0.4995(12)
H160_3 H 0.3630 0.7572 0.5660
Cu5_3 Cu 0.24108(3) 0.71598(3) 0.20576(10)
I3_3 I 0.180933(16) 0.749835(19) 0.15746(6)
I4_3 I 0.298554(17) 0.746617(19) 0.11519(5)
N7_3 N 0.1724(2) 0.7596(2) 0.4098(8)
Mo1_5 Mo 0.20374(2) 0.460409(18) 0.06769(5)
Mo4_5 Mo 0.29225(2) 0.46614(2) 0.08693(6)
O7_5 O 0.24474(18) 0.48059(18) 0.1243(4)
O10_5 O 0.17157(19) 0.4784(2) 0.1384(5)
O15_5 O 0.2075(2) 0.41713(19) 0.1004(5)
O22_5 O 0.2920(2) 0.42215(19) 0.1169(6)
O24_5 O 0.3157(2) 0.4879(3) 0.1716(7)
N5_5 N 0.2371(2) 0.6691(2) 0.1414(7)
C67_5 C 0.2114(2) 0.5467(2) 0.0212(7)
H143_5 H 0.2105 0.5438 0.0902
H144_5 H 0.1901 0.5602 0.0017
C68_5 C 0.2792(3) 0.5512(2) 0.0318(7)
H145_5 H 0.2995 0.5672 0.0182
H146_5 H 0.2771 0.5493 0.1008
C74_5 C 0.2359(3) 0.6372(3) 0.1896(11)
H153_6 H 0.2337 0.6373 0.2560
C75_5 C 0.2408(3) 0.6037(2) 0.0437(8)
C76_5 C 0.2376(3) 0.6063(3) 0.1436(9)
H154_5 H 0.2367 0.5849 0.1790
C81_5 C 0.2395(3) 0.6672(3) 0.0529(10)
H159_5 H 0.2402 0.6889 0.0192
C82_5 C 0.2413(3) 0.6358(3) 0.0005(12)
Mn1_4 Mn 0.00104(3) 0.75107(3) 0.64682(8)
Mo1_6 Mo 0.039591(18) 0.70374(2) 0.81769(5)
Mo2_4 Mo 0.006216(19) 0.662574(19) 0.62866(6)
Mo4_6 Mo 0.03386(2) 0.79225(2) 0.83693(6)
O3_4 O 0.04629(12) 0.75137(15) 0.7126(4)
O4_4 O 0.01839(13) 0.71531(15) 0.5492(4)
O5_4 O 0.01426(14) 0.79210(18) 0.5669(4)
O6_4 O 0.04643(14) 0.67716(15) 0.7013(4)
O7_6 O 0.01941(18) 0.74474(18) 0.8743(4)
O10_6 O 0.0216(2) 0.67157(19) 0.8884(5)
O15_6 O 0.08287(19) 0.7075(2) 0.8504(5)
O16_4 O 0.03723(18) 0.82499(16) 0.7326(6)
O18_4 O 0.02771(18) 0.6376(2) 0.5476(5)
O19_4 O 0.0152(2) 0.8691(2) 0.5922(8)
O22_6 O 0.07785(19) 0.7920(2) 0.8669(6)
O24_6 O 0.0121(3) 0.8157(2) 0.9216(7)
C65_4 C 0.07739(18) 0.7559(2) 0.6564(6)
H141_4 H 0.0940 0.7362 0.6703
H142_4 H 0.0891 0.7783 0.6748
C66_4 C 0.0705(2) 0.7567(2) 0.5487(6)
C69_4 C 0.0484(2) 0.7888(2) 0.5229(6)
H147_4 H 0.0624 0.8103 0.5380
H148_6 H 0.0448 0.7885 0.4541
C70_4 C 0.0534(2) 0.7231(2) 0.5112(6)
H149_6 H 0.0515 0.7252 0.4422
H150_4 H 0.0693 0.7029 0.5249
C73_4 C 0.1068(2) 0.7589(2) 0.5026(6)
C77_6 C 0.1651(3) 0.7357(3) 0.4768(8)
H155_6 H 0.1824 0.7183 0.4918
C78_6 C 0.1151(3) 0.7845(3) 0.4362(9)
H156_6 H 0.0979 0.8018 0.4193
C79_4 C 0.1329(2) 0.7356(3) 0.5253(8)
H157_4 H 0.1292 0.7191 0.5746
C80_6 C 0.1482(3) 0.7849(3) 0.3944(10)
H158_6 H 0.1540 0.8039 0.3532
Mo3_4 Mo 0.96718(2) 0.70948(3) 0.45836(6)
Mo5_4 Mo 0.99571(3) 0.83961(2) 0.66540(8)
Mo6_4 Mo 0.96294(2) 0.79781(3) 0.47513(7)
O1_4 O 0.98806(13) 0.71086(16) 0.7271(4)
O2_4 O 0.95640(14) 0.74987(17) 0.5808(4)
O8_4 O 0.96473(15) 0.67719(17) 0.5625(4)
O9_4 O 0.95685(17) 0.82378(17) 0.5920(6)
O11_4 O 0.98173(17) 0.7557(2) 0.4203(5)
O12_4 O 0.9734(3) 0.8648(2) 0.7455(8)
O13_4 O 0.9826(2) 0.8282(3) 0.4041(7)
O14_4 O 0.98368(15) 0.78732(17) 0.7445(5)
O17_4 O 0.9868(2) 0.6842(2) 0.3755(6)
O20_4 O 0.9242(2) 0.7096(2) 0.4286(5)
O21_4 O 0.92018(18) 0.7959(3) 0.4410(7)
O23_4 O 0.98638(18) 0.63246(17) 0.7009(6)
N5_6 N 0.8309(2) 0.7371(2) 0.8914(7)
C67_6 C 0.9533(2) 0.7114(2) 0.7712(7)
H143_6 H 0.9562 0.7105 0.8402
H144_6 H 0.9398 0.6901 0.7517
C68_6 C 0.9488(2) 0.7792(3) 0.7818(7)
H145_6 H 0.9328 0.7995 0.7682
H146_6 H 0.9507 0.7771 0.8508
C71_4 C 0.9319(2) 0.7456(3) 0.7437(9)
C72_4 C 0.9243(2) 0.7463(3) 0.6382(7)
H151_4 H 0.9119 0.7241 0.6205
H152_4 H 0.9082 0.7664 0.6243
C74_6 C 0.8628(3) 0.7359(3) 0.9396(11)
C75_6 C 0.8963(2) 0.7408(3) 0.7937(8)
C76_6 C 0.8937(3) 0.7376(3) 0.8936(9)
H154_6 H 0.9151 0.7367 0.9290
C81_6 C 0.8328(3) 0.7395(3) 0.8029(10)
H159_6 H 0.8111 0.7402 0.7692
C82_6 C 0.8642(3) 0.7413(3) 0.7505(12)
H160_4 H 0.8630 0.7428 0.6840
Mn1_5 Mn 0.49896(3) 0.25107(3) 0.10318(8)
Mo2_5 Mo 0.493784(19) 0.162574(19) 0.12134(6)
Mo3_5 Mo 0.53282(2) 0.20948(3) 0.29164(6)
Mo5_5 Mo 0.50429(3) 0.33961(2) 0.08460(8)
Mo6_5 Mo 0.53706(2) 0.29781(3) 0.27487(7)
O1_5 O 0.51194(13) 0.21086(16) 0.0229(4)
O2_5 O 0.54360(14) 0.24987(17) 0.1692(4)
O3_5 O 0.45371(12) 0.25137(15) 0.0374(4)
O4_5 O 0.48161(13) 0.21531(15) 0.2008(4)
O5_5 O 0.48574(14) 0.29210(18) 0.1831(4)
O6_5 O 0.45357(14) 0.17716(15) 0.0487(4)
O8_5 O 0.53527(15) 0.17719(17) 0.1875(4)
O9_5 O 0.54315(17) 0.32378(17) 0.1580(6)
O11_5 O 0.51827(17) 0.2557(2) 0.3297(5)
O12_5 O 0.5266(3) 0.3648(2) 0.0045(8)
O13_5 O 0.5174(2) 0.3282(3) 0.3459(7)
O14_5 O 0.51632(15) 0.28732(17) 0.0055(5)
O16_5 O 0.46277(18) 0.32499(16) 0.0174(6)
O17_5 O 0.5132(2) 0.1842(2) 0.3745(6)
O18_5 O 0.47229(18) 0.1376(2) 0.2024(5)
O19_5 O 0.4848(2) 0.3691(2) 0.1578(8)
O20_5 O 0.5758(2) 0.2096(2) 0.3214(5)
O21_5 O 0.57982(18) 0.2959(3) 0.3090(7)
O23_5 O 0.51362(18) 0.13246(17) 0.0491(6)
N6_4 N 0.3276(2) 0.2596(2) 0.3402(8)
C65_5 C 0.42261(18) 0.2559(2) 0.0936(6)
H141_5 H 0.4060 0.2362 0.0797
H142_5 H 0.4109 0.2783 0.0752
C66_5 C 0.4295(2) 0.2567(2) 0.2013(6)
C69_5 C 0.4516(2) 0.2888(2) 0.2271(6)
H147_5 H 0.4376 0.3103 0.2120
H148_7 H 0.4552 0.2885 0.2959
C70_5 C 0.4466(2) 0.2231(2) 0.2388(6)
H149_7 H 0.4485 0.2252 0.3078
H150_5 H 0.4307 0.2029 0.2251
C71_5 C 0.5681(2) 0.2456(3) 0.0063(9)
C72_5 C 0.5757(2) 0.2463(3) 0.1118(7)
H151_5 H 0.5881 0.2241 0.1295
H152_5 H 0.5918 0.2664 0.1257
C73_5 C 0.3932(2) 0.2589(2) 0.2474(6)
C77_7 C 0.3349(3) 0.2357(3) 0.2732(8)
H155_7 H 0.3176 0.2183 0.2582
C78_7 C 0.3849(3) 0.2845(3) 0.3138(9)
H156_7 H 0.4021 0.3018 0.3307
C79_5 C 0.3671(2) 0.2356(3) 0.2247(8)
H157_5 H 0.3708 0.2191 0.1754
C80_7 C 0.3518(3) 0.2849(3) 0.3556(10)
H158_7 H 0.3460 0.3039 0.3968
H160_5 H 0.6370 0.2428 0.0660
Cu3_3 Cu 0.28344(3) 0.25819(3) 0.42008(10)
Cu1_4 Cu 0.25819(3) 0.28344(3) 0.57992(10)
Cu2_4 Cu 0.25892(3) 0.21598(3) 0.54424(10)
I1_4 I 0.319067(16) 0.249835(19) 0.59254(6)
I2_4 I 0.201446(17) 0.246617(19) 0.63481(5)
Mo5_6 Mo 0.16039(2) 0.00429(3) 0.83460(8)
O1_6 O 0.28914(16) 0.01194(13) 0.7729(4)
O2_6 O 0.25013(17) 0.04360(14) 0.9192(4)
O8_6 O 0.32281(17) 0.03527(15) 0.9375(4)
O9_6 O 0.17622(17) 0.04315(17) 0.9080(6)
O12_6 O 0.1352(2) 0.0266(3) 0.7545(8)
O14_6 O 0.21268(17) 0.01632(15) 0.7555(5)
O23_6 O 0.36754(17) 0.01362(18) 0.7991(6)
N5_7 N 0.2629(2) 0.1691(2) 0.6086(7)
C67_7 C 0.2886(2) 0.0467(2) 0.7288(7)
H143_7 H 0.2895 0.0438 0.6598
H144_7 H 0.3099 0.0602 0.7483
C68_7 C 0.2208(3) 0.0512(2) 0.7182(7)
H145_7 H 0.2005 0.0672 0.7318
H146_7 H 0.2229 0.0493 0.6492
C71_6 C 0.2544(3) 0.0681(2) 0.7563(9)
C72_6 C 0.2537(3) 0.0757(2) 0.8618(7)
H151_6 H 0.2759 0.0881 0.8795
H152_6 H 0.2336 0.0918 0.8757
C74_7 C 0.2641(3) 0.1372(3) 0.5604(11)
H153_7 H 0.2663 0.1373 0.4940
C75_7 C 0.2592(3) 0.1037(2) 0.7063(8)
C76_7 C 0.2624(3) 0.1063(3) 0.6064(9)
H154_7 H 0.2633 0.0849 0.5710
C81_7 C 0.2605(3) 0.1672(3) 0.6971(10)
H159_7 H 0.2598 0.1889 0.7308
C82_7 C 0.2587(3) 0.1358(3) 0.7495(12)
H160_6 H 0.2572 0.1370 0.8160
Cu5_4 Cu 0.21598(3) 0.25892(3) 0.45576(10)
I3_4 I 0.249835(19) 0.319067(16) 0.40746(6)
I4_4 I 0.246617(19) 0.201446(17) 0.36519(5)
N7_4 N 0.2596(2) 0.3276(2) 0.6598(8)
Mn1_6 Mn 0.25107(3) 0.49896(3) 0.89682(8)
Mo2_6 Mo 0.162574(19) 0.493784(19) 0.87866(6)
Mo3_6 Mo 0.20948(3) 0.53282(2) 0.70836(6)
Mo5_7 Mo 0.33961(2) 0.50429(3) 0.91540(8)
Mo6_6 Mo 0.29781(3) 0.53706(2) 0.72513(7)
O1_7 O 0.21086(16) 0.51194(13) 0.9771(4)
O2_7 O 0.24987(17) 0.54360(14) 0.8308(4)
O3_6 O 0.25137(15) 0.45371(12) 0.9626(4)
O4_6 O 0.21531(15) 0.48161(13) 0.7992(4)
O5_6 O 0.29210(18) 0.48574(14) 0.8169(4)
O6_6 O 0.17716(15) 0.45357(14) 0.9513(4)
O8_7 O 0.17719(17) 0.53527(15) 0.8125(4)
O9_7 O 0.32378(17) 0.54315(17) 0.8420(6)
O11_6 O 0.2557(2) 0.51827(17) 0.6703(5)
O12_7 O 0.3648(2) 0.5266(3) 0.9955(8)
O13_6 O 0.3282(3) 0.5174(2) 0.6541(7)
O14_7 O 0.28732(17) 0.51632(15) 0.9945(5)
O16_6 O 0.32499(16) 0.46277(18) 0.9826(6)
O17_6 O 0.1842(2) 0.5132(2) 0.6255(6)
O18_6 O 0.1376(2) 0.47229(18) 0.7976(5)
O19_6 O 0.3691(2) 0.4848(2) 0.8422(8)
O20_6 O 0.2096(2) 0.5758(2) 0.6786(5)
O21_6 O 0.2959(3) 0.57982(18) 0.6910(7)
O23_7 O 0.13246(17) 0.51362(18) 0.9509(6)
C65_6 C 0.2559(2) 0.42261(18) 0.9064(6)
H141_6 H 0.2362 0.4060 0.9203
H142_6 H 0.2783 0.4109 0.9248
C66_6 C 0.2567(2) 0.4295(2) 0.7987(6)
C69_6 C 0.2888(2) 0.4516(2) 0.7729(6)
H147_6 H 0.3103 0.4376 0.7880
H148_8 H 0.2885 0.4552 0.7041
C70_6 C 0.2231(2) 0.4466(2) 0.7612(6)
H149_8 H 0.2252 0.4485 0.6922
H150_6 H 0.2029 0.4307 0.7749
C71_7 C 0.2456(3) 0.5681(2) 0.9937(9)
C72_7 C 0.2463(3) 0.5757(2) 0.8882(7)
H151_7 H 0.2241 0.5881 0.8705
H152_7 H 0.2664 0.5918 0.8743
C73_6 C 0.2589(2) 0.3932(2) 0.7526(6)
C77_8 C 0.2357(3) 0.3349(3) 0.7268(8)
H155_8 H 0.2183 0.3176 0.7418
C78_8 C 0.2845(3) 0.3849(3) 0.6862(9)
H156_8 H 0.3018 0.4021 0.6693
C79_6 C 0.2356(3) 0.3671(2) 0.7753(8)
H157_6 H 0.2191 0.3708 0.8246
C80_8 C 0.2849(3) 0.3518(3) 0.6444(10)
H158_8 H 0.3039 0.3460 0.6032
H160_7 H 0.2428 0.6370 0.9340
Mo5_8 Mo 0.00429(3) 0.16039(2) 0.16540(8)
O1_8 O 0.01194(13) 0.28914(16) 0.2271(4)
O2_8 O 0.04360(14) 0.25013(17) 0.0808(4)
O8_8 O 0.03527(15) 0.32281(17) 0.0625(4)
O9_8 O 0.04315(17) 0.17622(17) 0.0920(6)
O12_8 O 0.0266(3) 0.1352(2) 0.2455(8)
O14_8 O 0.01632(15) 0.21268(17) 0.2445(5)
O23_8 O 0.01362(18) 0.36754(17) 0.2009(6)
N5_8 N 0.1691(2) 0.2629(2) 0.3914(7)
C67_8 C 0.0467(2) 0.2886(2) 0.2712(7)
H143_8 H 0.0438 0.2895 0.3402
H144_8 H 0.0602 0.3099 0.2517
C68_8 C 0.0512(2) 0.2208(3) 0.2818(7)
H145_8 H 0.0672 0.2005 0.2682
H146_8 H 0.0493 0.2229 0.3508
C71_8 C 0.0681(2) 0.2544(3) 0.2437(9)
C72_8 C 0.0757(2) 0.2537(3) 0.1382(7)
H151_8 H 0.0881 0.2759 0.1205
H152_8 H 0.0918 0.2336 0.1243
C74_8 C 0.1372(3) 0.2641(3) 0.4396(11)
H153_8 H 0.1373 0.2663 0.5060
C75_8 C 0.1037(2) 0.2592(3) 0.2937(8)
C76_8 C 0.1063(3) 0.2624(3) 0.3936(9)
H154_8 H 0.0849 0.2633 0.4290
C81_8 C 0.1672(3) 0.2605(3) 0.3029(10)
H159_8 H 0.1889 0.2598 0.2692
C82_8 C 0.1358(3) 0.2587(3) 0.2505(12)
H160_8 H 0.1370 0.2572 0.1840
Mo3_7 Mo 0.29052(3) 0.03282(2) 0.04164(6)
Mo6_7 Mo 0.20219(3) 0.03706(2) 0.02487(7)
O11_7 O 0.2443(2) 0.01827(17) 0.0797(5)
O13_7 O 0.1718(3) 0.0174(2) 0.0959(7)
O17_7 O 0.3158(2) 0.0132(2) 0.1245(6)
O20_7 O 0.2904(2) 0.0758(2) 0.0714(5)
O21_7 O 0.2041(3) 0.07982(18) 0.0590(7)
Mn1_7 Mn 0.24893(3) 0.99896(3) 0.85318(8)
Mo1_7 Mo 0.29626(2) 0.960409(18) 0.68231(5)
Mo2_7 Mo 0.337426(19) 0.993784(19) 0.87134(6)
Mo4_7 Mo 0.20775(2) 0.96614(2) 0.66307(6)
O3_7 O 0.24863(15) 0.95371(12) 0.7874(4)
O4_7 O 0.28469(15) 0.98161(13) 0.9508(4)
O5_7 O 0.20790(18) 0.98574(14) 0.9331(4)
O6_7 O 0.32284(15) 0.95357(14) 0.7987(4)
O7_7 O 0.25526(18) 0.98059(18) 0.6257(4)
O10_7 O 0.32843(19) 0.9784(2) 0.6116(5)
O15_7 O 0.2925(2) 0.91713(19) 0.6496(5)
O16_7 O 0.17501(16) 0.96277(18) 0.7674(6)
O18_7 O 0.3624(2) 0.97229(18) 0.9524(5)
O19_7 O 0.1309(2) 0.9848(2) 0.9078(8)
O22_7 O 0.2080(2) 0.92215(19) 0.6331(6)
O24_7 O 0.1843(2) 0.9879(3) 0.5784(7)
C65_7 C 0.2441(2) 0.92261(18) 0.8436(6)
H141_7 H 0.2638 0.9060 0.8297
H142_7 H 0.2217 0.9109 0.8252
C66_7 C 0.2433(2) 0.9295(2) 0.9513(6)
C69_7 C 0.2112(2) 0.9516(2) 0.9771(6)
H147_7 H 0.1897 0.9376 0.9620
C70_7 C 0.2769(2) 0.9466(2) 0.9888(6)
H150_7 H 0.2971 0.9307 0.9751
C73_7 C 0.2411(2) 0.8932(2) 0.9974(6)
C79_7 C 0.2644(3) 0.8671(2) 0.9747(8)
H157_7 H 0.2809 0.8708 0.9254
Mo3_8 Mo 0.03282(2) 0.29052(3) 0.95836(6)
Mo6_8 Mo 0.03706(2) 0.20219(3) 0.97513(7)
O11_8 O 0.01827(17) 0.2443(2) 0.9203(5)
O13_8 O 0.0174(2) 0.1718(3) 0.9041(7)
O17_8 O 0.0132(2) 0.3158(2) 0.8755(6)
O20_8 O 0.0758(2) 0.2904(2) 0.9286(5)
O21_8 O 0.07982(18) 0.2041(3) 0.9410(7)
Mn1_8 Mn 0.99896(3) 0.24893(3) 0.14682(8)
Mo1_8 Mo 0.960409(18) 0.29626(2) 0.31769(5)
Mo2_8 Mo 0.993784(19) 0.337426(19) 0.12866(6)
Mo4_8 Mo 0.96614(2) 0.20775(2) 0.33693(6)
O3_8 O 0.95371(12) 0.24863(15) 0.2126(4)
O4_8 O 0.98161(13) 0.28469(15) 0.0492(4)
O5_8 O 0.98574(14) 0.20790(18) 0.0669(4)
O6_8 O 0.95357(14) 0.32284(15) 0.2013(4)
O7_8 O 0.98059(18) 0.25526(18) 0.3743(4)
O10_8 O 0.9784(2) 0.32843(19) 0.3884(5)
O15_8 O 0.91713(19) 0.2925(2) 0.3504(5)
O16_8 O 0.96277(18) 0.17501(16) 0.2326(6)
O18_8 O 0.97229(18) 0.3624(2) 0.0476(5)
O19_8 O 0.9848(2) 0.1309(2) 0.0922(8)
O22_8 O 0.92215(19) 0.2080(2) 0.3669(6)
O24_8 O 0.9879(3) 0.1843(2) 0.4216(7)
C65_8 C 0.92261(18) 0.2441(2) 0.1564(6)
H141_8 H 0.9060 0.2638 0.1703
H142_8 H 0.9109 0.2217 0.1748
C66_8 C 0.9295(2) 0.2433(2) 0.0487(6)
C69_8 C 0.9516(2) 0.2112(2) 0.0229(6)
H147_8 H 0.9376 0.1897 0.0380
C70_8 C 0.9466(2) 0.2769(2) 0.0112(6)
H150_8 H 0.9307 0.2971 0.0249
C73_8 C 0.8932(2) 0.2411(2) 0.0026(6)
C79_8 C 0.8671(2) 0.2644(3) 0.0253(8)
H157_8 H 0.8708 0.2809 0.0746
loop_
_geom_bond_atom_site_label_1
_geom_bond_atom_site_label_2
_geom_bond_site_symmetry_1
_geom_bond_site_symmetry_2
N1 C1 1_555 1_555
C1 H1 1_555 1_555
H2 C1 1_555 1_555
C2 N1 1_555 1_555
H3 C2 1_555 1_555
C3 N1 1_555 1_555
H5 C3 1_555 1_555
H6 C3 1_555 1_555
C4 N1 1_555 1_555
H7 C4 1_555 1_555
H8 C4 1_555 1_555
C5 C1 1_555 1_555
H9 C5 1_555 1_555
H10 C5 1_555 1_555
C6 C3 1_555 1_555
H11 C6 1_555 1_555
H12 C6 1_555 1_555
C7 C6 1_555 1_555
H13 C7 1_555 1_555
H14 C7 1_555 1_555
C8 C5 1_555 1_555
H15 C8 1_555 1_555
H16 C8 1_555 1_555
C11 C7 1_555 1_555
H21 C11 1_555 1_555
H22 C11 1_555 1_555
H23 C11 1_555 1_555
C12 C8 1_555 1_555
H24 C12 1_555 1_555
H25 C12 1_555 1_555
H26 C12 1_555 1_555
H17 C9 1_555 1_555
H18 C9 1_555 1_555
H19 C10 1_555 1_555
H20 C10 1_555 1_555
C13 C9 1_555 1_555
H27 C13 1_555 1_555
H28 C13 1_555 1_555
C14 C10 1_555 1_555
H29 C14 1_555 1_555
H30 C14 1_555 1_555
C15 C14 1_555 1_555
H31 C15 1_555 1_555
H32 C15 1_555 1_555
H33 C15 1_555 1_555
C16 C13 1_555 1_555
H34 C16 1_555 1_555
H35 C16 1_555 1_555
H36 C16 1_555 1_555
N1_2 C1_2 1_555 1_555
C1_2 H1_2 1_555 1_555
H2_2 C1_2 1_555 1_555
C2_2 N1_2 1_555 1_555
H3_2 C2_2 1_555 1_555
H4_2 C2_2 1_555 1_555
C3_2 N1_2 1_555 1_555
H5_2 C3_2 1_555 1_555
H6_2 C3_2 1_555 1_555
C4_2 N1_2 1_555 1_555
H7_2 C4_2 1_555 1_555
H8_2 C4_2 1_555 1_555
C5_2 C1_2 1_555 1_555
H9_2 C5_2 1_555 1_555
H10_2 C5_2 1_555 1_555
C6_2 C3_2 1_555 1_555
H11_2 C6_2 1_555 1_555
H12_2 C6_2 1_555 1_555
C7_2 C6_2 1_555 1_555
H13_2 C7_2 1_555 1_555
H14_2 C7_2 1_555 1_555
C8_2 C5_2 1_555 1_555
H15_2 C8_2 1_555 1_555
H16_2 C8_2 1_555 1_555
C9_2 C2_2 1_555 1_555
H17_2 C9_2 1_555 1_555
H18_2 C9_2 1_555 1_555
C10_2 C4_2 1_555 1_555
H19_2 C10_2 1_555 1_555
H20_2 C10_2 1_555 1_555
C11_2 C7_2 1_555 1_555
H21_2 C11_2 1_555 1_555
H22_2 C11_2 1_555 1_555
H23_2 C11_2 1_555 1_555
C12_2 C8_2 1_555 1_555
H24_2 C12_2 1_555 1_555
H25_2 C12_2 1_555 1_555
H26_2 C12_2 1_555 1_555
C13_2 C9_2 1_555 1_555
H27_2 C13_2 1_555 1_555
H28_2 C13_2 1_555 1_555
C14_2 C10_2 1_555 1_555
H29_2 C14_2 1_555 1_555
H30_2 C14_2 1_555 1_555
C15_2 C14_2 1_555 1_555
H31_2 C15_2 1_555 1_555
H32_2 C15_2 1_555 1_555
H33_2 C15_2 1_555 1_555
C16_2 C13_2 1_555 1_555
H34_2 C16_2 1_555 1_555
H35_2 C16_2 1_555 1_555
H36_2 C16_2 1_555 1_555
H17_3 C9_3 1_555 1_555
H18_3 C9_3 1_555 1_555
H19_3 C10_3 1_555 1_555
H20_3 C10_3 1_555 1_555
C13_3 C9_3 1_555 1_555
H27_3 C13_3 1_555 1_555
H28_3 C13_3 1_555 1_555
C14_3 C10_3 1_555 1_555
H29_3 C14_3 1_555 1_555
H30_3 C14_3 1_555 1_555
C15_3 C14_3 1_555 1_555
H31_3 C15_3 1_555 1_555
H32_3 C15_3 1_555 1_555
H33_3 C15_3 1_555 1_555
C16_3 C13_3 1_555 1_555
H34_3 C16_3 1_555 1_555
H35_3 C16_3 1_555 1_555
H36_3 C16_3 1_555 1_555
N1_3 C1_3 1_555 1_555
C1_3 H1_3 1_555 1_555
H2_3 C1_3 1_555 1_555
C2_3 N1_3 1_555 1_555
H3_3 C2_3 1_555 1_555
C3_3 N1_3 1_555 1_555
H5_3 C3_3 1_555 1_555
H6_3 C3_3 1_555 1_555
C4_3 N1_3 1_555 1_555
H7_3 C4_3 1_555 1_555
H8_3 C4_3 1_555 1_555
C5_3 C1_3 1_555 1_555
H9_3 C5_3 1_555 1_555
H10_3 C5_3 1_555 1_555
C6_3 C3_3 1_555 1_555
H11_3 C6_3 1_555 1_555
H12_3 C6_3 1_555 1_555
C7_3 C6_3 1_555 1_555
H13_3 C7_3 1_555 1_555
H14_3 C7_3 1_555 1_555
C8_3 C5_3 1_555 1_555
H15_3 C8_3 1_555 1_555
H16_3 C8_3 1_555 1_555
C11_3 C7_3 1_555 1_555
H21_3 C11_3 1_555 1_555
H22_3 C11_3 1_555 1_555
H23_3 C11_3 1_555 1_555
C12_3 C8_3 1_555 1_555
H24_3 C12_3 1_555 1_555
H25_3 C12_3 1_555 1_555
H26_3 C12_3 1_555 1_555
N1_4 C1_4 1_555 1_555
C2_4 N1_4 1_555 1_555
H3_4 C2_4 1_555 1_555
H4_4 C2_4 1_555 1_555
C3_4 N1_4 1_555 1_555
H5_4 C3_4 1_555 1_555
H6_4 C3_4 1_555 1_555
C4_4 N1_4 1_555 1_555
H7_4 C4_4 1_555 1_555
H8_4 C4_4 1_555 1_555
C5_4 C1_4 1_555 1_555
H9_4 C5_4 1_555 1_555
H10_4 C5_4 1_555 1_555
C6_4 C3_4 1_555 1_555
H11_4 C6_4 1_555 1_555
H12_4 C6_4 1_555 1_555
C7_4 C6_4 1_555 1_555
H13_4 C7_4 1_555 1_555
H14_4 C7_4 1_555 1_555
C9_4 C2_4 1_555 1_555
H17_4 C9_4 1_555 1_555
H18_4 C9_4 1_555 1_555
C10_4 C4_4 1_555 1_555
H19_4 C10_4 1_555 1_555
H20_4 C10_4 1_555 1_555
C11_4 C7_4 1_555 1_555
H21_4 C11_4 1_555 1_555
H22_4 C11_4 1_555 1_555
H23_4 C11_4 1_555 1_555
C13_4 C9_4 1_555 1_555
H28_4 C13_4 1_555 1_555
C14_4 C10_4 1_555 1_555
H29_4 C14_4 1_555 1_555
H30_4 C14_4 1_555 1_555
C15_4 C14_4 1_555 1_555
H31_4 C15_4 1_555 1_555
H32_4 C15_4 1_555 1_555
H33_4 C15_4 1_555 1_555
C16_4 C13_4 1_555 1_555
H34_4 C16_4 1_555 1_555
H35_4 C16_4 1_555 1_555
H36_4 C16_4 1_555 1_555
H15_4 C8_4 1_555 1_555
H16_4 C8_4 1_555 1_555
C12_4 C8_4 1_555 1_555
H24_4 C12_4 1_555 1_555
N1_5 C1_5 1_555 1_555
C1_5 H1_5 1_555 1_555
H2_5 C1_5 1_555 1_555
C2_5 N1_5 1_555 1_555
H3_5 C2_5 1_555 1_555
H4_5 C2_5 1_555 1_555
C3_5 N1_5 1_555 1_555
H5_5 C3_5 1_555 1_555
H6_5 C3_5 1_555 1_555
C4_5 N1_5 1_555 1_555
H7_5 C4_5 1_555 1_555
H8_5 C4_5 1_555 1_555
C5_5 C1_5 1_555 1_555
H9_5 C5_5 1_555 1_555
H10_5 C5_5 1_555 1_555
C6_5 C3_5 1_555 1_555
H11_5 C6_5 1_555 1_555
H12_5 C6_5 1_555 1_555
C7_5 C6_5 1_555 1_555
H13_5 C7_5 1_555 1_555
H14_5 C7_5 1_555 1_555
C8_5 C5_5 1_555 1_555
H15_5 C8_5 1_555 1_555
H16_5 C8_5 1_555 1_555
C9_5 C2_5 1_555 1_555
H17_5 C9_5 1_555 1_555
H18_5 C9_5 1_555 1_555
C10_5 C4_5 1_555 1_555
H19_5 C10_5 1_555 1_555
H20_5 C10_5 1_555 1_555
C11_5 C7_5 1_555 1_555
H21_5 C11_5 1_555 1_555
H22_5 C11_5 1_555 1_555
H23_5 C11_5 1_555 1_555
C12_5 C8_5 1_555 1_555
H24_5 C12_5 1_555 1_555
H25_5 C12_5 1_555 1_555
H26_5 C12_5 1_555 1_555
C13_5 C9_5 1_555 1_555
H27_5 C13_5 1_555 1_555
H28_5 C13_5 1_555 1_555
C14_5 C10_5 1_555 1_555
H29_5 C14_5 1_555 1_555
H30_5 C14_5 1_555 1_555
C15_5 C14_5 1_555 1_555
H31_5 C15_5 1_555 1_555
H32_5 C15_5 1_555 1_555
H33_5 C15_5 1_555 1_555
C16_5 C13_5 1_555 1_555
H34_5 C16_5 1_555 1_555
H35_5 C16_5 1_555 1_555
H36_5 C16_5 1_555 1_555
H15_6 C8_6 1_555 1_555
H16_6 C8_6 1_555 1_555
C12_6 C8_6 1_555 1_555
H24_6 C12_6 1_555 1_555
N1_6 C1_6 1_555 1_555
C2_6 N1_6 1_555 1_555
H3_6 C2_6 1_555 1_555
H4_6 C2_6 1_555 1_555
C3_6 N1_6 1_555 1_555
H5_6 C3_6 1_555 1_555
H6_6 C3_6 1_555 1_555
C4_6 N1_6 1_555 1_555
H7_6 C4_6 1_555 1_555
H8_6 C4_6 1_555 1_555
C5_6 C1_6 1_555 1_555
H9_6 C5_6 1_555 1_555
H10_6 C5_6 1_555 1_555
C6_6 C3_6 1_555 1_555
H11_6 C6_6 1_555 1_555
H12_6 C6_6 1_555 1_555
C7_6 C6_6 1_555 1_555
H13_6 C7_6 1_555 1_555
H14_6 C7_6 1_555 1_555
C9_6 C2_6 1_555 1_555
H17_6 C9_6 1_555 1_555
H18_6 C9_6 1_555 1_555
C10_6 C4_6 1_555 1_555
H19_6 C10_6 1_555 1_555
H20_6 C10_6 1_555 1_555
C11_6 C7_6 1_555 1_555
H21_6 C11_6 1_555 1_555
H22_6 C11_6 1_555 1_555
H23_6 C11_6 1_555 1_555
C13_6 C9_6 1_555 1_555
H28_6 C13_6 1_555 1_555
C14_6 C10_6 1_555 1_555
H29_6 C14_6 1_555 1_555
H30_6 C14_6 1_555 1_555
C15_6 C14_6 1_555 1_555
H31_6 C15_6 1_555 1_555
H32_6 C15_6 1_555 1_555
H33_6 C15_6 1_555 1_555
C16_6 C13_6 1_555 1_555
H34_6 C16_6 1_555 1_555
H35_6 C16_6 1_555 1_555
H36_6 C16_6 1_555 1_555
N1_7 C1_7 1_555 1_555
C1_7 H1_7 1_555 1_555
H2_7 C1_7 1_555 1_555
C2_7 N1_7 1_555 1_555
H3_7 C2_7 1_555 1_555
C3_7 N1_7 1_555 1_555
H5_7 C3_7 1_555 1_555
H6_7 C3_7 1_555 1_555
C4_7 N1_7 1_555 1_555
H7_7 C4_7 1_555 1_555
H8_7 C4_7 1_555 1_555
C5_7 C1_7 1_555 1_555
H9_7 C5_7 1_555 1_555
H10_7 C5_7 1_555 1_555
C6_7 C3_7 1_555 1_555
H11_7 C6_7 1_555 1_555
H12_7 C6_7 1_555 1_555
C7_7 C6_7 1_555 1_555
H13_7 C7_7 1_555 1_555
H14_7 C7_7 1_555 1_555
C8_7 C5_7 1_555 1_555
H15_7 C8_7 1_555 1_555
H16_7 C8_7 1_555 1_555
C11_7 C7_7 1_555 1_555
H21_7 C11_7 1_555 1_555
H22_7 C11_7 1_555 1_555
H23_7 C11_7 1_555 1_555
C12_7 C8_7 1_555 1_555
H24_7 C12_7 1_555 1_555
H25_7 C12_7 1_555 1_555
H26_7 C12_7 1_555 1_555
H17_7 C9_7 1_555 1_555
H18_7 C9_7 1_555 1_555
H19_7 C10_7 1_555 1_555
H20_7 C10_7 1_555 1_555
C13_7 C9_7 1_555 1_555
H27_7 C13_7 1_555 1_555
H28_7 C13_7 1_555 1_555
C14_7 C10_7 1_555 1_555
H29_7 C14_7 1_555 1_555
H30_7 C14_7 1_555 1_555
C15_7 C14_7 1_555 1_555
H31_7 C15_7 1_555 1_555
H32_7 C15_7 1_555 1_555
H33_7 C15_7 1_555 1_555
C16_7 C13_7 1_555 1_555
H34_7 C16_7 1_555 1_555
H35_7 C16_7 1_555 1_555
H36_7 C16_7 1_555 1_555
H17_8 C9_8 1_555 1_555
H18_8 C9_8 1_555 1_555
H19_8 C10_8 1_555 1_555
H20_8 C10_8 1_555 1_555
C13_8 C9_8 1_555 1_555
H27_8 C13_8 1_555 1_555
H28_8 C13_8 1_555 1_555
C14_8 C10_8 1_555 1_555
H29_8 C14_8 1_555 1_555
H30_8 C14_8 1_555 1_555
C15_8 C14_8 1_555 1_555
H31_8 C15_8 1_555 1_555
H32_8 C15_8 1_555 1_555
H33_8 C15_8 1_555 1_555
C16_8 C13_8 1_555 1_555
H34_8 C16_8 1_555 1_555
H35_8 C16_8 1_555 1_555
H36_8 C16_8 1_555 1_555
N1_8 C1_8 1_555 1_555
C1_8 H1_8 1_555 1_555
H2_8 C1_8 1_555 1_555
C2_8 N1_8 1_555 1_555
H3_8 C2_8 1_555 1_555
C3_8 N1_8 1_555 1_555
H5_8 C3_8 1_555 1_555
H6_8 C3_8 1_555 1_555
C4_8 N1_8 1_555 1_555
H7_8 C4_8 1_555 1_555
H8_8 C4_8 1_555 1_555
C5_8 C1_8 1_555 1_555
H9_8 C5_8 1_555 1_555
H10_8 C5_8 1_555 1_555
C6_8 C3_8 1_555 1_555
H11_8 C6_8 1_555 1_555
H12_8 C6_8 1_555 1_555
C7_8 C6_8 1_555 1_555
H13_8 C7_8 1_555 1_555
H14_8 C7_8 1_555 1_555
C8_8 C5_8 1_555 1_555
H15_8 C8_8 1_555 1_555
H16_8 C8_8 1_555 1_555
C11_8 C7_8 1_555 1_555
H21_8 C11_8 1_555 1_555
H22_8 C11_8 1_555 1_555
H23_8 C11_8 1_555 1_555
C12_8 C8_8 1_555 1_555
H24_8 C12_8 1_555 1_555
H25_8 C12_8 1_555 1_555
H26_8 C12_8 1_555 1_555
N2 C19 1_555 1_555
C17 H37 1_555 1_555
H38 C17 1_555 1_555
C18 H39 1_555 1_555
H40 C18 1_555 1_555
C19 C18 1_555 1_555
H41 C19 1_555 1_555
H42 C19 1_555 1_555
C20 N2 1_555 1_555
H43 C20 1_555 1_555
H44 C20 1_555 1_555
C21 C18 1_555 1_555
H45 C21 1_555 1_555
H46 C21 1_555 1_555
C22 N2 1_555 1_555
H47 C22 1_555 1_555
H48 C22 1_555 1_555
C23 H49 1_555 1_555
H50 C23 1_555 1_555
C24 N2 1_555 1_555
H51 C24 1_555 1_555
H52 C24 1_555 1_555
C25 C21 1_555 1_555
H53 C25 1_555 1_555
H54 C25 1_555 1_555
H55 C25 1_555 1_555
C26 C17 1_555 1_555
H56 C26 1_555 1_555
C28 C22 1_555 1_555
H59 C28 1_555 1_555
H60 C28 1_555 1_555
C29 C26 1_555 1_555
H63 C29 1_555 1_555
C30 C23 1_555 1_555
H64 C30 1_555 1_555
C32 C30 1_555 1_555
H68 C32 1_555 1_555
H69 C32 1_555 1_555
H70 C32 1_555 1_555
C17 C20 1_555 1_555
C23 C24 1_555 1_555
C30 H162 1_555 1_555
C27 H57 1_555 1_555
H58 C27 1_555 1_555
C31 C27 1_555 1_555
H65 C31 1_555 1_555
H67 C31 1_555 1_555
N2_2 C19_2 1_555 1_555
C18_2 H39_2 1_555 1_555
H40_2 C18_2 1_555 1_555
C19_2 C18_2 1_555 1_555
H41_2 C19_2 1_555 1_555
H42_2 C19_2 1_555 1_555
C21_2 C18_2 1_555 1_555
H45_2 C21_2 1_555 1_555
H46_2 C21_2 1_555 1_555
C23_2 H49_2 1_555 1_555
H50_2 C23_2 1_555 1_555
C24_2 N2_2 1_555 1_555
H52_2 C24_2 1_555 1_555
C25_2 C21_2 1_555 1_555
H53_2 C25_2 1_555 1_555
H54_2 C25_2 1_555 1_555
H55_2 C25_2 1_555 1_555
C23_2 C24_2 1_555 1_555
C17_2 H37_2 1_555 1_555
H38_2 C17_2 1_555 1_555
H43_2 C20_2 1_555 1_555
H44_2 C20_2 1_555 1_555
H48_2 C22_2 1_555 1_555
C26_2 C17_2 1_555 1_555
H56_2 C26_2 1_555 1_555
C27_2 H57_2 1_555 1_555
H58_2 C27_2 1_555 1_555
C28_2 C22_2 1_555 1_555
H59_2 C28_2 1_555 1_555
H60_2 C28_2 1_555 1_555
C29_2 C26_2 1_555 1_555
H61_2 C29_2 1_555 1_555
H62_2 C29_2 1_555 1_555
H63_2 C29_2 1_555 1_555
C31_2 C27_2 1_555 1_555
H65_2 C31_2 1_555 1_555
H66_2 C31_2 1_555 1_555
H67_2 C31_2 1_555 1_555
C17_2 C20_2 1_555 1_555
C27_2 C28_2 1_555 1_555
C26_2 H161_2 1_555 1_555
H64_2 C30_2 1_555 1_555
C32_2 C30_2 1_555 1_555
H68_2 C32_2 1_555 1_555
H69_2 C32_2 1_555 1_555
H70_2 C32_2 1_555 1_555
C30_2 H162_2 1_555 1_555
C27_3 H57_3 1_555 1_555
H58_3 C27_3 1_555 1_555
C31_3 C27_3 1_555 1_555
H65_3 C31_3 1_555 1_555
H66_3 C31_3 1_555 1_555
H67_3 C31_3 1_555 1_555
N2_3 C19_3 1_555 1_555
C17_3 H37_3 1_555 1_555
H38_3 C17_3 1_555 1_555
C18_3 H39_3 1_555 1_555
H40_3 C18_3 1_555 1_555
C19_3 C18_3 1_555 1_555
H41_3 C19_3 1_555 1_555
H42_3 C19_3 1_555 1_555
C20_3 N2_3 1_555 1_555
H43_3 C20_3 1_555 1_555
H44_3 C20_3 1_555 1_555
C21_3 C18_3 1_555 1_555
H45_3 C21_3 1_555 1_555
H46_3 C21_3 1_555 1_555
C22_3 N2_3 1_555 1_555
H47_3 C22_3 1_555 1_555
H48_3 C22_3 1_555 1_555
C23_3 H49_3 1_555 1_555
H50_3 C23_3 1_555 1_555
C24_3 N2_3 1_555 1_555
H51_3 C24_3 1_555 1_555
H52_3 C24_3 1_555 1_555
C25_3 C21_3 1_555 1_555
H55_3 C25_3 1_555 1_555
C26_3 C17_3 1_555 1_555
H56_3 C26_3 1_555 1_555
C28_3 C22_3 1_555 1_555
H59_3 C28_3 1_555 1_555
H60_3 C28_3 1_555 1_555
C29_3 C26_3 1_555 1_555
H61_3 C29_3 1_555 1_555
H62_3 C29_3 1_555 1_555
H63_3 C29_3 1_555 1_555
C30_3 C23_3 1_555 1_555
H64_3 C30_3 1_555 1_555
C32_3 C30_3 1_555 1_555
H68_3 C32_3 1_555 1_555
H69_3 C32_3 1_555 1_555
H70_3 C32_3 1_555 1_555
C17_3 C20_3 1_555 1_555
C23_3 C24_3 1_555 1_555
C26_3 H161_3 1_555 1_555
C30_3 H162_3 1_555 1_555
H64_4 C30_4 1_555 1_555
C32_4 C30_4 1_555 1_555
H68_4 C32_4 1_555 1_555
H69_4 C32_4 1_555 1_555
H70_4 C32_4 1_555 1_555
C30_4 H162_4 1_555 1_555
N2_4 C19_4 1_555 1_555
C17_4 H37_4 1_555 1_555
H38_4 C17_4 1_555 1_555
C18_4 H39_4 1_555 1_555
H40_4 C18_4 1_555 1_555
C19_4 C18_4 1_555 1_555
H41_4 C19_4 1_555 1_555
H42_4 C19_4 1_555 1_555
C20_4 N2_4 1_555 1_555
H43_4 C20_4 1_555 1_555
H44_4 C20_4 1_555 1_555
C21_4 C18_4 1_555 1_555
H45_4 C21_4 1_555 1_555
H46_4 C21_4 1_555 1_555
C22_4 N2_4 1_555 1_555
H47_4 C22_4 1_555 1_555
H48_4 C22_4 1_555 1_555
C23_4 H49_4 1_555 1_555
H50_4 C23_4 1_555 1_555
C24_4 N2_4 1_555 1_555
H51_4 C24_4 1_555 1_555
H52_4 C24_4 1_555 1_555
C25_4 C21_4 1_555 1_555
H53_4 C25_4 1_555 1_555
H54_4 C25_4 1_555 1_555
H55_4 C25_4 1_555 1_555
C26_4 C17_4 1_555 1_555
H56_4 C26_4 1_555 1_555
C27_4 H57_4 1_555 1_555
H58_4 C27_4 1_555 1_555
C28_4 C22_4 1_555 1_555
H59_4 C28_4 1_555 1_555
H60_4 C28_4 1_555 1_555
C29_4 C26_4 1_555 1_555
H61_4 C29_4 1_555 1_555
H62_4 C29_4 1_555 1_555
H63_4 C29_4 1_555 1_555
C31_4 C27_4 1_555 1_555
H65_4 C31_4 1_555 1_555
H66_4 C31_4 1_555 1_555
H67_4 C31_4 1_555 1_555
C17_4 C20_4 1_555 1_555
C23_4 C24_4 1_555 1_555
C27_4 C28_4 1_555 1_555
C26_4 H161_4 1_555 1_555
C17_5 H37_5 1_555 1_555
H38_5 C17_5 1_555 1_555
H43_5 C20_5 1_555 1_555
H44_5 C20_5 1_555 1_555
H48_5 C22_5 1_555 1_555
C26_5 C17_5 1_555 1_555
H56_5 C26_5 1_555 1_555
C27_5 H57_5 1_555 1_555
H58_5 C27_5 1_555 1_555
C28_5 C22_5 1_555 1_555
H59_5 C28_5 1_555 1_555
H60_5 C28_5 1_555 1_555
C29_5 C26_5 1_555 1_555
H61_5 C29_5 1_555 1_555
H62_5 C29_5 1_555 1_555
H63_5 C29_5 1_555 1_555
C31_5 C27_5 1_555 1_555
H65_5 C31_5 1_555 1_555
H66_5 C31_5 1_555 1_555
H67_5 C31_5 1_555 1_555
C17_5 C20_5 1_555 1_555
C27_5 C28_5 1_555 1_555
C26_5 H161_5 1_555 1_555
N2_5 C19_5 1_555 1_555
C18_5 H39_5 1_555 1_555
H40_5 C18_5 1_555 1_555
C19_5 C18_5 1_555 1_555
H41_5 C19_5 1_555 1_555
H42_5 C19_5 1_555 1_555
C21_5 C18_5 1_555 1_555
H45_5 C21_5 1_555 1_555
H46_5 C21_5 1_555 1_555
C23_5 H49_5 1_555 1_555
H50_5 C23_5 1_555 1_555
C24_5 N2_5 1_555 1_555
H52_5 C24_5 1_555 1_555
C25_5 C21_5 1_555 1_555
H53_5 C25_5 1_555 1_555
H54_5 C25_5 1_555 1_555
H55_5 C25_5 1_555 1_555
C23_5 C24_5 1_555 1_555
H64_5 C30_5 1_555 1_555
C32_5 C30_5 1_555 1_555
H68_5 C32_5 1_555 1_555
H69_5 C32_5 1_555 1_555
H70_5 C32_5 1_555 1_555
C30_5 H162_5 1_555 1_555
H64_6 C30_6 1_555 1_555
C32_6 C30_6 1_555 1_555
H68_6 C32_6 1_555 1_555
H69_6 C32_6 1_555 1_555
H70_6 C32_6 1_555 1_555
C30_6 H162_6 1_555 1_555
N2_6 C19_6 1_555 1_555
C17_6 H37_6 1_555 1_555
H38_6 C17_6 1_555 1_555
C18_6 H39_6 1_555 1_555
H40_6 C18_6 1_555 1_555
C19_6 C18_6 1_555 1_555
H41_6 C19_6 1_555 1_555
H42_6 C19_6 1_555 1_555
C20_6 N2_6 1_555 1_555
H43_6 C20_6 1_555 1_555
H44_6 C20_6 1_555 1_555
C21_6 C18_6 1_555 1_555
H45_6 C21_6 1_555 1_555
H46_6 C21_6 1_555 1_555
C22_6 N2_6 1_555 1_555
H47_6 C22_6 1_555 1_555
H48_6 C22_6 1_555 1_555
C23_6 H49_6 1_555 1_555
H50_6 C23_6 1_555 1_555
C24_6 N2_6 1_555 1_555
H51_6 C24_6 1_555 1_555
H52_6 C24_6 1_555 1_555
C25_6 C21_6 1_555 1_555
H53_6 C25_6 1_555 1_555
H54_6 C25_6 1_555 1_555
H55_6 C25_6 1_555 1_555
C26_6 C17_6 1_555 1_555
H56_6 C26_6 1_555 1_555
C27_6 H57_6 1_555 1_555
H58_6 C27_6 1_555 1_555
C28_6 C22_6 1_555 1_555
H59_6 C28_6 1_555 1_555
H60_6 C28_6 1_555 1_555
C29_6 C26_6 1_555 1_555
H61_6 C29_6 1_555 1_555
H62_6 C29_6 1_555 1_555
H63_6 C29_6 1_555 1_555
C31_6 C27_6 1_555 1_555
H65_6 C31_6 1_555 1_555
H66_6 C31_6 1_555 1_555
H67_6 C31_6 1_555 1_555
C17_6 C20_6 1_555 1_555
C23_6 C24_6 1_555 1_555
C27_6 C28_6 1_555 1_555
C26_6 H161_6 1_555 1_555
N2_7 C19_7 1_555 1_555
C17_7 H37_7 1_555 1_555
H38_7 C17_7 1_555 1_555
C18_7 H39_7 1_555 1_555
H40_7 C18_7 1_555 1_555
C19_7 C18_7 1_555 1_555
H41_7 C19_7 1_555 1_555
H42_7 C19_7 1_555 1_555
C20_7 N2_7 1_555 1_555
H43_7 C20_7 1_555 1_555
H44_7 C20_7 1_555 1_555
C21_7 C18_7 1_555 1_555
H45_7 C21_7 1_555 1_555
H46_7 C21_7 1_555 1_555
C22_7 N2_7 1_555 1_555
H47_7 C22_7 1_555 1_555
H48_7 C22_7 1_555 1_555
C23_7 H49_7 1_555 1_555
H50_7 C23_7 1_555 1_555
C24_7 N2_7 1_555 1_555
H51_7 C24_7 1_555 1_555
H52_7 C24_7 1_555 1_555
C25_7 C21_7 1_555 1_555
H53_7 C25_7 1_555 1_555
H54_7 C25_7 1_555 1_555
H55_7 C25_7 1_555 1_555
C26_7 C17_7 1_555 1_555
H56_7 C26_7 1_555 1_555
C28_7 C22_7 1_555 1_555
H59_7 C28_7 1_555 1_555
H60_7 C28_7 1_555 1_555
C29_7 C26_7 1_555 1_555
H63_7 C29_7 1_555 1_555
C30_7 C23_7 1_555 1_555
H64_7 C30_7 1_555 1_555
C32_7 C30_7 1_555 1_555
H68_7 C32_7 1_555 1_555
H69_7 C32_7 1_555 1_555
H70_7 C32_7 1_555 1_555
C17_7 C20_7 1_555 1_555
C23_7 C24_7 1_555 1_555
C30_7 H162_7 1_555 1_555
C27_7 H57_7 1_555 1_555
H58_7 C27_7 1_555 1_555
C31_7 C27_7 1_555 1_555
H65_7 C31_7 1_555 1_555
H67_7 C31_7 1_555 1_555
C27_8 H57_8 1_555 1_555
H58_8 C27_8 1_555 1_555
C31_8 C27_8 1_555 1_555
H65_8 C31_8 1_555 1_555
H66_8 C31_8 1_555 1_555
H67_8 C31_8 1_555 1_555
N2_8 C19_8 1_555 1_555
C17_8 H37_8 1_555 1_555
H38_8 C17_8 1_555 1_555
C18_8 H39_8 1_555 1_555
H40_8 C18_8 1_555 1_555
C19_8 C18_8 1_555 1_555
H41_8 C19_8 1_555 1_555
H42_8 C19_8 1_555 1_555
C20_8 N2_8 1_555 1_555
H43_8 C20_8 1_555 1_555
H44_8 C20_8 1_555 1_555
C21_8 C18_8 1_555 1_555
H45_8 C21_8 1_555 1_555
H46_8 C21_8 1_555 1_555
C22_8 N2_8 1_555 1_555
H47_8 C22_8 1_555 1_555
H48_8 C22_8 1_555 1_555
C23_8 H49_8 1_555 1_555
H50_8 C23_8 1_555 1_555
C24_8 N2_8 1_555 1_555
H51_8 C24_8 1_555 1_555
H52_8 C24_8 1_555 1_555
C25_8 C21_8 1_555 1_555
H55_8 C25_8 1_555 1_555
C26_8 C17_8 1_555 1_555
H56_8 C26_8 1_555 1_555
C28_8 C22_8 1_555 1_555
H59_8 C28_8 1_555 1_555
H60_8 C28_8 1_555 1_555
C29_8 C26_8 1_555 1_555
H61_8 C29_8 1_555 1_555
H62_8 C29_8 1_555 1_555
H63_8 C29_8 1_555 1_555
C30_8 C23_8 1_555 1_555
H64_8 C30_8 1_555 1_555
C32_8 C30_8 1_555 1_555
H68_8 C32_8 1_555 1_555
H69_8 C32_8 1_555 1_555
H70_8 C32_8 1_555 1_555
C17_8 C20_8 1_555 1_555
C23_8 C24_8 1_555 1_555
C26_8 H161_8 1_555 1_555
C30_8 H162_8 1_555 1_555
H99 C46 1_555 1_555
H100 C46 1_555 1_555
C47 C46 1_555 1_555
H101 C47 1_555 1_555
H102 C47 1_555 1_555
H103 C47 1_555 1_555
H81 C38 1_555 1_555
H82 C38 1_555 1_555
C39 C38 1_555 1_555
H83 C39 1_555 1_555
H84 C39 1_555 1_555
H85 C39 1_555 1_555
N3 C34 1_555 1_555
C33 H71 1_555 1_555
H72 C33 1_555 1_555
C34 C33 1_555 1_555
H73 C34 1_555 1_555
H74 C34 1_555 1_555
C35 C33 1_555 1_555
H75 C35 1_555 1_555
H76 C35 1_555 1_555
C36 N3 1_555 1_555
H77 C36 1_555 1_555
H78 C36 1_555 1_555
C37 C36 1_555 1_555
H80 C37 1_555 1_555
C40 C35 1_555 1_555
H86 C40 1_555 1_555
H87 C40 1_555 1_555
H88 C40 1_555 1_555
C41 H89 1_555 1_555
H90 C41 1_555 1_555
C42 N3 1_555 1_555
H91 C42 1_555 1_555
H92 C42 1_555 1_555
C43 C41 1_555 1_555
H93 C43 1_555 1_555
H94 C43 1_555 1_555
C44 N3 1_555 1_555
H95 C44 1_555 1_555
H96 C44 1_555 1_555
C45 C44 1_555 1_555
H98 C45 1_555 1_555
C48 C43 1_555 1_555
H104 C48 1_555 1_555
H105 C48 1_555 1_555
H106 C48 1_555 1_555
C41 C42 1_555 1_555
N3_2 C34_2 1_555 1_555
C33_2 H71_2 1_555 1_555
H72_2 C33_2 1_555 1_555
C34_2 C33_2 1_555 1_555
H73_2 C34_2 1_555 1_555
H74_2 C34_2 1_555 1_555
C35_2 C33_2 1_555 1_555
H75_2 C35_2 1_555 1_555
H76_2 C35_2 1_555 1_555
C36_2 N3_2 1_555 1_555
H77_2 C36_2 1_555 1_555
H78_2 C36_2 1_555 1_555
C37_2 C36_2 1_555 1_555
H79_2 C37_2 1_555 1_555
H80_2 C37_2 1_555 1_555
C38_2 C37_2 1_555 1_555
H81_2 C38_2 1_555 1_555
H82_2 C38_2 1_555 1_555
C39_2 C38_2 1_555 1_555
H83_2 C39_2 1_555 1_555
H84_2 C39_2 1_555 1_555
H85_2 C39_2 1_555 1_555
C40_2 C35_2 1_555 1_555
H86_2 C40_2 1_555 1_555
H87_2 C40_2 1_555 1_555
H88_2 C40_2 1_555 1_555
C41_2 H89_2 1_555 1_555
H90_2 C41_2 1_555 1_555
C42_2 N3_2 1_555 1_555
H91_2 C42_2 1_555 1_555
H92_2 C42_2 1_555 1_555
C43_2 C41_2 1_555 1_555
H93_2 C43_2 1_555 1_555
H94_2 C43_2 1_555 1_555
C44_2 N3_2 1_555 1_555
H95_2 C44_2 1_555 1_555
H96_2 C44_2 1_555 1_555
C45_2 C44_2 1_555 1_555
H97_2 C45_2 1_555 1_555
H98_2 C45_2 1_555 1_555
C46_2 C45_2 1_555 1_555
H99_2 C46_2 1_555 1_555
H100_2 C46_2 1_555 1_555
C47_2 C46_2 1_555 1_555
H101_2 C47_2 1_555 1_555
H102_2 C47_2 1_555 1_555
H103_2 C47_2 1_555 1_555
C48_2 C43_2 1_555 1_555
H104_2 C48_2 1_555 1_555
H105_2 C48_2 1_555 1_555
H106_2 C48_2 1_555 1_555
C41_2 C42_2 1_555 1_555
N3_3 C34_3 1_555 1_555
C33_3 H71_3 1_555 1_555
H72_3 C33_3 1_555 1_555
C34_3 C33_3 1_555 1_555
H73_3 C34_3 1_555 1_555
H74_3 C34_3 1_555 1_555
C35_3 C33_3 1_555 1_555
H75_3 C35_3 1_555 1_555
H76_3 C35_3 1_555 1_555
C36_3 N3_3 1_555 1_555
H77_3 C36_3 1_555 1_555
H78_3 C36_3 1_555 1_555
C37_3 C36_3 1_555 1_555
H80_3 C37_3 1_555 1_555
C40_3 C35_3 1_555 1_555
H86_3 C40_3 1_555 1_555
H87_3 C40_3 1_555 1_555
H88_3 C40_3 1_555 1_555
C41_3 H89_3 1_555 1_555
H90_3 C41_3 1_555 1_555
C42_3 N3_4 1_555 1_555
H91_3 C42_3 1_555 1_555
H92_3 C42_3 1_555 1_555
C43_3 C41_3 1_555 1_555
H93_3 C43_3 1_555 1_555
H94_3 C43_3 1_555 1_555
C44_3 N3_4 1_555 1_555
H95_3 C44_3 1_555 1_555
H96_3 C44_3 1_555 1_555
C45_3 C44_3 1_555 1_555
H98_3 C45_3 1_555 1_555
C48_3 C43_3 1_555 1_555
H104_3 C48_3 1_555 1_555
H105_3 C48_3 1_555 1_555
H106_3 C48_3 1_555 1_555
C41_3 C42_3 1_555 1_555
H81_3 C38_3 1_555 1_555
H82_3 C38_3 1_555 1_555
C39_3 C38_3 1_555 1_555
H83_3 C39_3 1_555 1_555
H84_3 C39_3 1_555 1_555
H85_3 C39_3 1_555 1_555
H99_3 C46_3 1_555 1_555
H100_3 C46_3 1_555 1_555
C47_3 C46_3 1_555 1_555
H101_3 C47_3 1_555 1_555
H102_3 C47_3 1_555 1_555
H103_3 C47_3 1_555 1_555
N3_5 C34_4 1_555 1_555
C33_4 H71_4 1_555 1_555
H72_4 C33_4 1_555 1_555
C34_4 C33_4 1_555 1_555
H73_4 C34_4 1_555 1_555
H74_4 C34_4 1_555 1_555
C35_4 C33_4 1_555 1_555
H75_4 C35_4 1_555 1_555
H76_4 C35_4 1_555 1_555
C36_4 N3_5 1_555 1_555
H77_4 C36_4 1_555 1_555
H78_4 C36_4 1_555 1_555
C37_4 C36_4 1_555 1_555
H79_4 C37_4 1_555 1_555
H80_4 C37_4 1_555 1_555
C38_4 C37_4 1_555 1_555
H81_4 C38_4 1_555 1_555
H82_4 C38_4 1_555 1_555
C39_4 C38_4 1_555 1_555
H83_4 C39_4 1_555 1_555
H84_4 C39_4 1_555 1_555
H85_4 C39_4 1_555 1_555
C40_4 C35_4 1_555 1_555
H86_4 C40_4 1_555 1_555
H87_4 C40_4 1_555 1_555
H88_4 C40_4 1_555 1_555
C41_4 H89_4 1_555 1_555
H90_4 C41_4 1_555 1_555
C42_4 N3_5 1_555 1_555
H91_4 C42_4 1_555 1_555
H92_4 C42_4 1_555 1_555
C43_4 C41_4 1_555 1_555
H93_4 C43_4 1_555 1_555
H94_4 C43_4 1_555 1_555
C44_4 N3_5 1_555 1_555
H95_4 C44_4 1_555 1_555
H96_4 C44_4 1_555 1_555
C45_4 C44_4 1_555 1_555
H97_4 C45_4 1_555 1_555
H98_4 C45_4 1_555 1_555
C46_4 C45_4 1_555 1_555
H99_4 C46_4 1_555 1_555
H100_4 C46_4 1_555 1_555
C47_4 C46_4 1_555 1_555
H101_4 C47_4 1_555 1_555
H102_4 C47_4 1_555 1_555
H103_4 C47_4 1_555 1_555
C48_4 C43_4 1_555 1_555
H104_4 C48_4 1_555 1_555
H105_4 C48_4 1_555 1_555
H106_4 C48_4 1_555 1_555
C41_4 C42_4 1_555 1_555
H116 C54 1_555 1_555
H117 C54 1_555 1_555
C55 C54 1_555 1_555
H118 C55 1_555 1_555
H119 C55 1_555 1_555
H120 C55 1_555 1_555
N4 C49 1_555 1_555
C49 H107 1_555 1_555
H108 C49 1_555 1_555
C50 N4 1_555 1_555
H109 C50 1_555 1_555
C51 C49 1_555 1_555
H110 C51 1_555 1_555
H111 C51 1_555 1_555
C52 C51 1_555 1_555
H112 C52 1_555 1_555
H113 C52 1_555 1_555
C53 C50 1_555 1_555
H114 C53 1_555 1_555
H115 C53 1_555 1_555
C56 C52 1_555 1_555
H121 C56 1_555 1_555
H122 C56 1_555 1_555
H123 C56 1_555 1_555
C57 N4 1_555 1_555
H124 C57 1_555 1_555
H125 C57 1_555 1_555
C58 N4 1_555 1_555
H126 C58 1_555 1_555
C59 C57 1_555 1_555
H127 C59 1_555 1_555
H128 C59 1_555 1_555
C60 C59 1_555 1_555
H129 C60 1_555 1_555
H130 C60 1_555 1_555
C61 C58 1_555 1_555
H131 C61 1_555 1_555
H132 C61 1_555 1_555
C64 C60 1_555 1_555
H138 C64 1_555 1_555
H139 C64 1_555 1_555
H140 C64 1_555 1_555
C58 H163 1_555 1_555
C50 H164 1_555 1_555
H133 C62 1_555 1_555
H134 C62 1_555 1_555
C63 C62 1_555 1_555
H135 C63 1_555 1_555
H136 C63 1_555 1_555
H137 C63 1_555 1_555
N4_2 C49_2 1_555 1_555
C49_2 H107_2 1_555 1_555
H108_2 C49_2 1_555 1_555
C50_2 N4_2 1_555 1_555
H109_2 C50_2 1_555 1_555
C51_2 C49_2 1_555 1_555
H110_2 C51_2 1_555 1_555
H111_2 C51_2 1_555 1_555
C52_2 C51_2 1_555 1_555
H112_2 C52_2 1_555 1_555
H113_2 C52_2 1_555 1_555
C53_2 C50_2 1_555 1_555
H114_2 C53_2 1_555 1_555
H115_2 C53_2 1_555 1_555
C54_2 C53_2 1_555 1_555
H116_2 C54_2 1_555 1_555
H117_2 C54_2 1_555 1_555
C55_2 C54_2 1_555 1_555
H118_2 C55_2 1_555 1_555
H119_2 C55_2 1_555 1_555
H120_2 C55_2 1_555 1_555
C56_2 C52_2 1_555 1_555
H121_2 C56_2 1_555 1_555
H122_2 C56_2 1_555 1_555
H123_2 C56_2 1_555 1_555
C50_2 H164_2 1_555 1_555
C57_2 N4_3 1_555 1_555
H124_2 C57_2 1_555 1_555
H125_2 C57_2 1_555 1_555
C58_2 N4_3 1_555 1_555
H126_2 C58_2 1_555 1_555
C59_2 C57_2 1_555 1_555
H127_2 C59_2 1_555 1_555
H128_2 C59_2 1_555 1_555
C60_2 C59_2 1_555 1_555
H129_2 C60_2 1_555 1_555
H130_2 C60_2 1_555 1_555
C61_2 C58_2 1_555 1_555
H131_2 C61_2 1_555 1_555
H132_2 C61_2 1_555 1_555
C62_2 C61_2 1_555 1_555
H133_2 C62_2 1_555 1_555
H134_2 C62_2 1_555 1_555
C63_2 C62_2 1_555 1_555
H135_2 C63_2 1_555 1_555
H136_2 C63_2 1_555 1_555
H137_2 C63_2 1_555 1_555
C64_2 C60_2 1_555 1_555
H138_2 C64_2 1_555 1_555
H139_2 C64_2 1_555 1_555
H140_2 C64_2 1_555 1_555
C58_2 H163_2 1_555 1_555
H133_3 C62_3 1_555 1_555
H134_3 C62_3 1_555 1_555
C63_3 C62_3 1_555 1_555
H135_3 C63_3 1_555 1_555
H136_3 C63_3 1_555 1_555
H137_3 C63_3 1_555 1_555
N4_4 C49_3 1_555 1_555
C49_3 H107_3 1_555 1_555
H108_3 C49_3 1_555 1_555
C50_3 N4_4 1_555 1_555
H109_3 C50_3 1_555 1_555
C51_3 C49_3 1_555 1_555
H110_3 C51_3 1_555 1_555
H111_3 C51_3 1_555 1_555
C52_3 C51_3 1_555 1_555
H112_3 C52_3 1_555 1_555
H113_3 C52_3 1_555 1_555
C53_3 C50_3 1_555 1_555
H114_3 C53_3 1_555 1_555
H115_3 C53_3 1_555 1_555
C56_3 C52_3 1_555 1_555
H121_3 C56_3 1_555 1_555
H122_3 C56_3 1_555 1_555
H123_3 C56_3 1_555 1_555
C57_3 N4_4 1_555 1_555
H124_3 C57_3 1_555 1_555
H125_3 C57_3 1_555 1_555
C58_3 N4_4 1_555 1_555
H126_3 C58_3 1_555 1_555
C59_3 C57_3 1_555 1_555
H127_3 C59_3 1_555 1_555
H128_3 C59_3 1_555 1_555
C60_3 C59_3 1_555 1_555
H129_3 C60_3 1_555 1_555
H130_3 C60_3 1_555 1_555
C61_3 C58_3 1_555 1_555
H131_3 C61_3 1_555 1_555
H132_3 C61_3 1_555 1_555
C64_3 C60_3 1_555 1_555
H138_3 C64_3 1_555 1_555
H139_3 C64_3 1_555 1_555
H140_3 C64_3 1_555 1_555
C58_3 H163_3 1_555 1_555
C50_3 H164_3 1_555 1_555
H116_3 C54_3 1_555 1_555
H117_3 C54_3 1_555 1_555
C55_3 C54_3 1_555 1_555
H118_3 C55_3 1_555 1_555
H119_3 C55_3 1_555 1_555
H120_3 C55_3 1_555 1_555
N4_5 C49_4 1_555 1_555
C49_4 H107_4 1_555 1_555
H108_4 C49_4 1_555 1_555
C50_4 N4_5 1_555 1_555
H109_4 C50_4 1_555 1_555
C51_4 C49_4 1_555 1_555
H110_4 C51_4 1_555 1_555
H111_4 C51_4 1_555 1_555
C52_4 C51_4 1_555 1_555
H112_4 C52_4 1_555 1_555
H113_4 C52_4 1_555 1_555
C53_4 C50_4 1_555 1_555
H114_4 C53_4 1_555 1_555
H115_4 C53_4 1_555 1_555
C54_4 C53_4 1_555 1_555
H116_4 C54_4 1_555 1_555
H117_4 C54_4 1_555 1_555
C55_4 C54_4 1_555 1_555
H118_4 C55_4 1_555 1_555
H119_4 C55_4 1_555 1_555
H120_4 C55_4 1_555 1_555
C56_4 C52_4 1_555 1_555
H121_4 C56_4 1_555 1_555
H122_4 C56_4 1_555 1_555
H123_4 C56_4 1_555 1_555
C57_4 N4_5 1_555 1_555
H124_4 C57_4 1_555 1_555
H125_4 C57_4 1_555 1_555
C58_4 N4_5 1_555 1_555
H126_4 C58_4 1_555 1_555
C59_4 C57_4 1_555 1_555
H127_4 C59_4 1_555 1_555
H128_4 C59_4 1_555 1_555
C60_4 C59_4 1_555 1_555
H129_4 C60_4 1_555 1_555
H130_4 C60_4 1_555 1_555
C61_4 C58_4 1_555 1_555
H131_4 C61_4 1_555 1_555
H132_4 C61_4 1_555 1_555
C62_4 C61_4 1_555 1_555
H133_4 C62_4 1_555 1_555
H134_4 C62_4 1_555 1_555
C63_4 C62_4 1_555 1_555
H135_4 C63_4 1_555 1_555
H136_4 C63_4 1_555 1_555
H137_4 C63_4 1_555 1_555
C64_4 C60_4 1_555 1_555
H138_4 C64_4 1_555 1_555
H139_4 C64_4 1_555 1_555
H140_4 C64_4 1_555 1_555
C58_4 H163_4 1_555 1_555
C50_4 H164_4 1_555 1_555
Mo4 O3 1_555 1_555
O3 Mn1 1_555 1_555
O4 Mn1 1_555 1_555
O5 Mn1 1_555 1_555
O6 Mo1 1_555 1_555
O7 Mo1 1_555 1_555
O10 Mo1 1_555 1_555
O15 Mo1 1_555 1_555
O16 Mo4 1_555 1_555
O18 Mo2 1_555 1_555
O22 Mo4 1_555 1_555
O24 Mo4 1_555 1_555
N6 C77 1_555 1_555
C65 O3 1_555 1_555
H141 C65 1_555 1_555
H142 C65 1_555 1_555
C66 C65 1_555 1_555
C69 O5 1_555 1_555
H147 C69 1_555 1_555
H148 C69 1_555 1_555
C70 O4 1_555 1_555
H149 C70 1_555 1_555
H150 C70 1_555 1_555
C73 C66 1_555 1_555
C77 H155 1_555 1_555
C78 C73 1_555 1_555
H156 C78 1_555 1_555
C79 C73 1_555 1_555
H157 C79 1_555 1_555
C80 N6 1_555 1_555
H158 C80 1_555 1_555
Cu3 N6 1_555 1_555
Mo1 O3 1_555 1_555
Mo2 O4 1_555 1_555
Mo2 O6 1_555 1_555
Mo4 O7 1_555 1_555
C66 C69 1_555 1_555
C66 C70 1_555 1_555
C77 C79 1_555 1_555
C78 C80 1_555 1_555
Cu1 I1 1_555 1_555
Cu2 I1 1_555 1_555
I2 Cu1 1_555 1_555
Mo3 O2 1_555 1_555
Mo6 O2 1_555 1_555
O1 C67 1_555 1_555
O9 Mo5 1_555 1_555
O11 Mo3 1_555 1_555
O12 Mo5 1_555 1_555
O13 Mo6 1_555 1_555
O17 Mo3 1_555 1_555
O20 Mo3 1_555 1_555
O21 Mo6 1_555 1_555
N5 Cu2 1_555 1_555
C67 H143 1_555 1_555
H144 C67 1_555 1_555
C68 O14 1_555 1_555
H145 C68 1_555 1_555
H146 C68 1_555 1_555
C71 C67 1_555 1_555
C72 O2 1_555 1_555
H151 C72 1_555 1_555
H152 C72 1_555 1_555
C74 N5 1_555 1_555
C75 C71 1_555 1_555
C76 C74 1_555 1_555
H154 C76 1_555 1_555
C81 N5 1_555 1_555
H159 C81 1_555 1_555
C82 C75 1_555 1_555
H160 C82 1_555 1_555
N7 Cu1 1_555 1_555
Cu2 I2 1_555 1_555
Mo3 O8 1_555 1_555
Mo5 O14 1_555 1_555
Mo6 O9 1_555 1_555
Mo6 O11 1_555 1_555
C68 C71 1_555 1_555
C71 C72 1_555 1_555
C75 C76 1_555 1_555
C81 C82 1_555 1_555
Cu1_2 I1_2 1_555 1_555
Cu2_2 I1_2 1_555 1_555
I1_2 Cu3 1_555 1_555
I2_2 Cu1_2 1_555 1_555
O7_2 Mo1_2 1_555 1_555
O10_2 Mo1_2 1_555 1_555
O15_2 Mo1_2 1_555 1_555
O22_2 Mo4_2 1_555 1_555
O24_2 Mo4_2 1_555 1_555
N5_2 Cu2_2 1_555 1_555
C67_2 H143_2 1_555 1_555
H144_2 C67_2 1_555 1_555
H145_2 C68_2 1_555 1_555
H146_2 C68_2 1_555 1_555
C74_2 N5_2 1_555 1_555
H153 C74_2 1_555 1_555
C76_2 C74_2 1_555 1_555
H154_2 C76_2 1_555 1_555
C81_2 N5_2 1_555 1_555
H159_2 C81_2 1_555 1_555
C82_2 C75_2 1_555 1_555
Cu3 I3 1_555 1_555
Cu5 I2_2 1_555 1_555
I3 Cu1_2 1_555 1_555
I4 Cu2_2 1_555 1_555
N7_2 Cu1_2 1_555 1_555
Cu2_2 I2_2 1_555 1_555
Mo4_2 O7_2 1_555 1_555
C75_2 C76_2 1_555 1_555
C81_2 C82_2 1_555 1_555
Cu3 I4 1_555 1_555
Cu5 I3 1_555 1_555
Cu5 I4 1_555 1_555
Mn1_2 O1_2 1_555 1_555
Mo1_3 O1_2 1_555 1_555
Mo2_2 O1_2 1_555 1_555
Mo3_2 O2_2 1_555 1_555
Mo4_3 O3_2 1_555 1_555
Mo5_2 O5_2 1_555 1_555
Mo6_2 O2_2 1_555 1_555
O1_2 C67_3 1_555 1_555
O2_2 Mn1_2 1_555 1_555
O3_2 Mn1_2 1_555 1_555
O4_2 Mn1_2 1_555 1_555
O5_2 Mn1_2 1_555 1_555
O6_2 Mo1_3 1_555 1_555
O7_3 Mo1_3 1_555 1_555
O8_2 Mo2_2 1_555 1_555
O9_2 Mo5_2 1_555 1_555
O10_3 Mo1_3 1_555 1_555
O11_2 Mo3_2 1_555 1_555
O12_2 Mo5_2 1_555 1_555
O13_2 Mo6_2 1_555 1_555
O14_2 Mn1_2 1_555 1_555
O15_3 Mo1_3 1_555 1_555
O16_2 Mo4_3 1_555 1_555
O17_2 Mo3_2 1_555 1_555
O18_2 Mo2_2 1_555 1_555
O19_2 Mo5_2 1_555 1_555
O20_2 Mo3_2 1_555 1_555
O21_2 Mo6_2 1_555 1_555
O22_3 Mo4_3 1_555 1_555
O23_2 Mo2_2 1_555 1_555
O24_3 Mo4_3 1_555 1_555
N5_3 Cu5 1_555 1_555
N7 C77_2 1_555 1_555
C65_2 O3_2 1_555 1_555
H141_2 C65_2 1_555 1_555
H142_2 C65_2 1_555 1_555
C66_2 C65_2 1_555 1_555
C67_3 H143_3 1_555 1_555
H144_3 C67_3 1_555 1_555
C68_3 O14_2 1_555 1_555
H145_3 C68_3 1_555 1_555
H146_3 C68_3 1_555 1_555
C69_2 O5_2 1_555 1_555
H147_2 C69_2 1_555 1_555
H148_2 C69_2 1_555 1_555
C70_2 O4_2 1_555 1_555
H149_2 C70_2 1_555 1_555
H150_2 C70_2 1_555 1_555
C71_2 C67_3 1_555 1_555
C72_2 O2_2 1_555 1_555
H151_2 C72_2 1_555 1_555
H152_2 C72_2 1_555 1_555
C73_2 C66_2 1_555 1_555
C74_3 N5_3 1_555 1_555
H153_2 C74_3 1_555 1_555
C75_3 C71_2 1_555 1_555
C76_3 C74_3 1_555 1_555
H154_3 C76_3 1_555 1_555
C77_2 H155_2 1_555 1_555
C78_2 C73_2 1_555 1_555
H156_2 C78_2 1_555 1_555
C79_2 C73_2 1_555 1_555
H157_2 C79_2 1_555 1_555
C80_2 N7 1_555 1_555
H158_2 C80_2 1_555 1_555
C81_3 N5_3 1_555 1_555
H159_3 C81_3 1_555 1_555
C82_3 C75_3 1_555 1_555
H160_2 C82_3 1_555 1_555
Mo1_3 O3_2 1_555 1_555
Mo2_2 O4_2 1_555 1_555
Mo2_2 O6_2 1_555 1_555
Mo3_2 O4_2 1_555 1_555
Mo3_2 O8_2 1_555 1_555
Mo4_3 O7_3 1_555 1_555
Mo4_3 O14_2 1_555 1_555
Mo5_2 O14_2 1_555 1_555
Mo5_2 O16_2 1_555 1_555
Mo6_2 O5_2 1_555 1_555
Mo6_2 O9_2 1_555 1_555
Mo6_2 O11_2 1_555 1_555
C66_2 C69_2 1_555 1_555
C66_2 C70_2 1_555 1_555
C68_3 C71_2 1_555 1_555
C71_2 C72_2 1_555 1_555
C75_3 C76_3 1_555 1_555
C77_2 C79_2 1_555 1_555
C78_2 C80_2 1_555 1_555
C81_3 C82_3 1_555 1_555
N7_2 C77_3 1_555 1_555
C77_3 H155_3 1_555 1_555
H156_3 C78_3 1_555 1_555
C80_3 N7_2 1_555 1_555
H158_3 C80_3 1_555 1_555
C78_3 C80_3 1_555 1_555
Cu4 I3_2 1_555 1_555
Cu4 I4_2 1_555 1_555
Cu5_2 I3_2 1_555 1_555
Cu5_2 I4_2 1_555 1_555
N6_2 C77_4 1_555 1_555
C77_4 H155_4 1_555 1_555
H156_4 C78_4 1_555 1_555
C80_4 N6_2 1_555 1_555
H158_4 C80_4 1_555 1_555
Cu3_2 N6_2 1_555 1_555
C78_4 C80_4 1_555 1_555
Cu1_3 I1_3 1_555 1_555
Cu2_3 I1_3 1_555 1_555
I1_3 Cu3_2 1_555 1_555
I2_3 Cu1_3 1_555 1_555
Mn1_3 O1_3 1_555 1_555
Mo1_4 O1_3 1_555 1_555
Mo2_3 O1_3 1_555 1_555
Mo3_3 O2_3 1_555 1_555
Mo4_4 O3_3 1_555 1_555
Mo5_3 O5_3 1_555 1_555
Mo6_3 O2_3 1_555 1_555
O1_3 C67_4 1_555 1_555
O2_3 Mn1_3 1_555 1_555
O3_3 Mn1_3 1_555 1_555
O4_3 Mn1_3 1_555 1_555
O5_3 Mn1_3 1_555 1_555
O6_3 Mo1_4 1_555 1_555
O7_4 Mo1_4 1_555 1_555
O8_3 Mo2_3 1_555 1_555
O9_3 Mo5_3 1_555 1_555
O10_4 Mo1_4 1_555 1_555
O11_3 Mo3_3 1_555 1_555
O12_3 Mo5_3 1_555 1_555
O13_3 Mo6_3 1_555 1_555
O14_3 Mn1_3 1_555 1_555
O15_4 Mo1_4 1_555 1_555
O16_3 Mo4_4 1_555 1_555
O17_3 Mo3_3 1_555 1_555
O18_3 Mo2_3 1_555 1_555
O19_3 Mo5_3 1_555 1_555
O20_3 Mo3_3 1_555 1_555
O21_3 Mo6_3 1_555 1_555
O22_4 Mo4_4 1_555 1_555
O23_3 Mo2_3 1_555 1_555
O24_4 Mo4_4 1_555 1_555
N5_4 Cu2_3 1_555 1_555
N6_3 C77_5 1_555 1_555
C65_3 O3_3 1_555 1_555
H141_3 C65_3 1_555 1_555
H142_3 C65_3 1_555 1_555
C66_3 C65_3 1_555 1_555
C67_4 H143_4 1_555 1_555
H144_4 C67_4 1_555 1_555
C68_4 O14_3 1_555 1_555
H145_4 C68_4 1_555 1_555
H146_4 C68_4 1_555 1_555
C69_3 O5_3 1_555 1_555
H147_3 C69_3 1_555 1_555
H148_5 C69_3 1_555 1_555
C70_3 O4_3 1_555 1_555
H149_5 C70_3 1_555 1_555
H150_3 C70_3 1_555 1_555
C71_3 C67_4 1_555 1_555
C72_3 O2_3 1_555 1_555
H151_3 C72_3 1_555 1_555
H152_3 C72_3 1_555 1_555
C73_3 C66_3 1_555 1_555
C74_4 N5_4 1_555 1_555
H153_5 C74_4 1_555 1_555
C75_4 C71_3 1_555 1_555
C76_4 C74_4 1_555 1_555
H154_4 C76_4 1_555 1_555
C77_5 H155_5 1_555 1_555
C78_5 C73_3 1_555 1_555
H156_5 C78_5 1_555 1_555
C79_3 C73_3 1_555 1_555
H157_3 C79_3 1_555 1_555
C80_5 N6_3 1_555 1_555
H158_5 C80_5 1_555 1_555
C81_4 N5_4 1_555 1_555
H159_4 C81_4 1_555 1_555
C82_4 C75_4 1_555 1_555
H160_3 C82_4 1_555 1_555
Cu4 N6_3 1_555 1_555
Cu3_2 I3_3 1_555 1_555
Cu5_3 I2_3 1_555 1_555
I3_3 Cu1_3 1_555 1_555
I4_3 Cu2_3 1_555 1_555
N7_3 Cu1_3 1_555 1_555
Cu2_3 I2_3 1_555 1_555
Mo1_4 O3_3 1_555 1_555
Mo2_3 O4_3 1_555 1_555
Mo2_3 O6_3 1_555 1_555
Mo3_3 O4_3 1_555 1_555
Mo3_3 O8_3 1_555 1_555
Mo4_4 O7_4 1_555 1_555
Mo4_4 O14_3 1_555 1_555
Mo5_3 O14_3 1_555 1_555
Mo5_3 O16_3 1_555 1_555
Mo6_3 O5_3 1_555 1_555
Mo6_3 O9_3 1_555 1_555
Mo6_3 O11_3 1_555 1_555
C66_3 C69_3 1_555 1_555
C66_3 C70_3 1_555 1_555
C68_4 C71_3 1_555 1_555
C71_3 C72_3 1_555 1_555
C75_4 C76_4 1_555 1_555
C77_5 C79_3 1_555 1_555
C78_5 C80_5 1_555 1_555
C81_4 C82_4 1_555 1_555
Cu3_2 I4_3 1_555 1_555
Cu5_3 I3_3 1_555 1_555
Cu5_3 I4_3 1_555 1_555
O7_5 Mo1_5 1_555 1_555
O10_5 Mo1_5 1_555 1_555
O15_5 Mo1_5 1_555 1_555
O22_5 Mo4_5 1_555 1_555
O24_5 Mo4_5 1_555 1_555
N5_5 Cu5_3 1_555 1_555
C67_5 H143_5 1_555 1_555
H144_5 C67_5 1_555 1_555
H145_5 C68_5 1_555 1_555
H146_5 C68_5 1_555 1_555
C74_5 N5_5 1_555 1_555
H153_6 C74_5 1_555 1_555
C76_5 C74_5 1_555 1_555
H154_5 C76_5 1_555 1_555
C81_5 N5_5 1_555 1_555
H159_5 C81_5 1_555 1_555
C82_5 C75_5 1_555 1_555
Mo4_5 O7_5 1_555 1_555
C75_5 C76_5 1_555 1_555
C81_5 C82_5 1_555 1_555
Mo4_6 O3_4 1_555 1_555
O3_4 Mn1_4 1_555 1_555
O4_4 Mn1_4 1_555 1_555
O5_4 Mn1_4 1_555 1_555
O6_4 Mo1_6 1_555 1_555
O7_6 Mo1_6 1_555 1_555
O10_6 Mo1_6 1_555 1_555
O15_6 Mo1_6 1_555 1_555
O16_4 Mo4_6 1_555 1_555
O18_4 Mo2_4 1_555 1_555
O22_6 Mo4_6 1_555 1_555
O24_6 Mo4_6 1_555 1_555
N7_3 C77_6 1_555 1_555
C65_4 O3_4 1_555 1_555
H141_4 C65_4 1_555 1_555
H142_4 C65_4 1_555 1_555
C66_4 C65_4 1_555 1_555
C69_4 O5_4 1_555 1_555
H147_4 C69_4 1_555 1_555
H148_6 C69_4 1_555 1_555
C70_4 O4_4 1_555 1_555
H149_6 C70_4 1_555 1_555
H150_4 C70_4 1_555 1_555
C73_4 C66_4 1_555 1_555
C77_6 H155_6 1_555 1_555
C78_6 C73_4 1_555 1_555
H156_6 C78_6 1_555 1_555
C79_4 C73_4 1_555 1_555
H157_4 C79_4 1_555 1_555
C80_6 N7_3 1_555 1_555
H158_6 C80_6 1_555 1_555
Mo1_6 O3_4 1_555 1_555
Mo2_4 O4_4 1_555 1_555
Mo2_4 O6_4 1_555 1_555
Mo4_6 O7_6 1_555 1_555
C66_4 C69_4 1_555 1_555
C66_4 C70_4 1_555 1_555
C77_6 C79_4 1_555 1_555
C78_6 C80_6 1_555 1_555
Mo3_4 O2_4 1_555 1_555
Mo6_4 O2_4 1_555 1_555
O1_4 C67_6 1_555 1_555
O9_4 Mo5_4 1_555 1_555
O11_4 Mo3_4 1_555 1_555
O12_4 Mo5_4 1_555 1_555
O13_4 Mo6_4 1_555 1_555
O17_4 Mo3_4 1_555 1_555
O20_4 Mo3_4 1_555 1_555
O21_4 Mo6_4 1_555 1_555
N5_6 Cu5_2 1_555 1_555
C67_6 H143_6 1_555 1_555
H144_6 C67_6 1_555 1_555
C68_6 O14_4 1_555 1_555
H145_6 C68_6 1_555 1_555
H146_6 C68_6 1_555 1_555
C71_4 C67_6 1_555 1_555
C72_4 O2_4 1_555 1_555
H151_4 C72_4 1_555 1_555
H152_4 C72_4 1_555 1_555
C74_6 N5_6 1_555 1_555
C75_6 C71_4 1_555 1_555
C76_6 C74_6 1_555 1_555
H154_6 C76_6 1_555 1_555
C81_6 N5_6 1_555 1_555
H159_6 C81_6 1_555 1_555
C82_6 C75_6 1_555 1_555
H160_4 C82_6 1_555 1_555
Mo3_4 O8_4 1_555 1_555
Mo5_4 O14_4 1_555 1_555
Mo6_4 O9_4 1_555 1_555
Mo6_4 O11_4 1_555 1_555
C68_6 C71_4 1_555 1_555
C71_4 C72_4 1_555 1_555
C75_6 C76_6 1_555 1_555
C81_6 C82_6 1_555 1_555
Mn1_5 O1_5 1_555 1_555
Mo2_5 O1_5 1_555 1_555
Mo3_5 O2_5 1_555 1_555
Mo5_5 O5_5 1_555 1_555
Mo6_5 O2_5 1_555 1_555
O2_5 Mn1_5 1_555 1_555
O3_5 Mn1_5 1_555 1_555
O4_5 Mn1_5 1_555 1_555
O5_5 Mn1_5 1_555 1_555
O8_5 Mo2_5 1_555 1_555
O9_5 Mo5_5 1_555 1_555
O11_5 Mo3_5 1_555 1_555
O12_5 Mo5_5 1_555 1_555
O13_5 Mo6_5 1_555 1_555
O14_5 Mn1_5 1_555 1_555
O17_5 Mo3_5 1_555 1_555
O18_5 Mo2_5 1_555 1_555
O19_5 Mo5_5 1_555 1_555
O20_5 Mo3_5 1_555 1_555
O21_5 Mo6_5 1_555 1_555
O23_5 Mo2_5 1_555 1_555
N6_4 C77_7 1_555 1_555
C65_5 O3_5 1_555 1_555
H141_5 C65_5 1_555 1_555
H142_5 C65_5 1_555 1_555
C66_5 C65_5 1_555 1_555
C69_5 O5_5 1_555 1_555
H147_5 C69_5 1_555 1_555
H148_7 C69_5 1_555 1_555
C70_5 O4_5 1_555 1_555
H149_7 C70_5 1_555 1_555
H150_5 C70_5 1_555 1_555
C72_5 O2_5 1_555 1_555
H151_5 C72_5 1_555 1_555
H152_5 C72_5 1_555 1_555
C73_5 C66_5 1_555 1_555
C77_7 H155_7 1_555 1_555
C78_7 C73_5 1_555 1_555
H156_7 C78_7 1_555 1_555
C79_5 C73_5 1_555 1_555
H157_5 C79_5 1_555 1_555
C80_7 N6_4 1_555 1_555
H158_7 C80_7 1_555 1_555
Cu3_3 N6_4 1_555 1_555
Mo2_5 O4_5 1_555 1_555
Mo2_5 O6_5 1_555 1_555
Mo3_5 O4_5 1_555 1_555
Mo3_5 O8_5 1_555 1_555
Mo5_5 O14_5 1_555 1_555
Mo5_5 O16_5 1_555 1_555
Mo6_5 O5_5 1_555 1_555
Mo6_5 O9_5 1_555 1_555
Mo6_5 O11_5 1_555 1_555
C66_5 C69_5 1_555 1_555
C66_5 C70_5 1_555 1_555
C71_5 C72_5 1_555 1_555
C77_7 C79_5 1_555 1_555
C78_7 C80_7 1_555 1_555
Cu1_4 I1_4 1_555 1_555
Cu2_4 I1_4 1_555 1_555
I1_4 Cu3_3 1_555 1_555
I2_4 Cu1_4 1_555 1_555
O1_6 C67_7 1_555 1_555
O9_6 Mo5_6 1_555 1_555
O12_6 Mo5_6 1_555 1_555
N5_7 Cu2_4 1_555 1_555
C67_7 H143_7 1_555 1_555
H144_7 C67_7 1_555 1_555
C68_7 O14_6 1_555 1_555
H145_7 C68_7 1_555 1_555
H146_7 C68_7 1_555 1_555
C71_6 C67_7 1_555 1_555
C72_6 O2_6 1_555 1_555
H151_6 C72_6 1_555 1_555
H152_6 C72_6 1_555 1_555
C74_7 N5_7 1_555 1_555
H153_7 C74_7 1_555 1_555
C75_7 C71_6 1_555 1_555
C76_7 C74_7 1_555 1_555
H154_7 C76_7 1_555 1_555
C81_7 N5_7 1_555 1_555
H159_7 C81_7 1_555 1_555
C82_7 C75_7 1_555 1_555
H160_6 C82_7 1_555 1_555
Cu3_3 I3_4 1_555 1_555
Cu5_4 I2_4 1_555 1_555
I3_4 Cu1_4 1_555 1_555
I4_4 Cu2_4 1_555 1_555
N7_4 Cu1_4 1_555 1_555
Cu2_4 I2_4 1_555 1_555
Mo5_6 O14_6 1_555 1_555
C68_7 C71_6 1_555 1_555
C71_6 C72_6 1_555 1_555
C75_7 C76_7 1_555 1_555
C81_7 C82_7 1_555 1_555
Cu3_3 I4_4 1_555 1_555
Cu5_4 I3_4 1_555 1_555
Cu5_4 I4_4 1_555 1_555
Mn1_6 O1_7 1_555 1_555
Mo2_6 O1_7 1_555 1_555
Mo3_6 O2_7 1_555 1_555
Mo5_7 O5_6 1_555 1_555
Mo6_6 O2_7 1_555 1_555
O2_7 Mn1_6 1_555 1_555
O3_6 Mn1_6 1_555 1_555
O4_6 Mn1_6 1_555 1_555
O5_6 Mn1_6 1_555 1_555
O8_7 Mo2_6 1_555 1_555
O9_7 Mo5_7 1_555 1_555
O11_6 Mo3_6 1_555 1_555
O12_7 Mo5_7 1_555 1_555
O13_6 Mo6_6 1_555 1_555
O14_7 Mn1_6 1_555 1_555
O17_6 Mo3_6 1_555 1_555
O18_6 Mo2_6 1_555 1_555
O19_6 Mo5_7 1_555 1_555
O20_6 Mo3_6 1_555 1_555
O21_6 Mo6_6 1_555 1_555
O23_7 Mo2_6 1_555 1_555
N7_4 C77_8 1_555 1_555
C65_6 O3_6 1_555 1_555
H141_6 C65_6 1_555 1_555
H142_6 C65_6 1_555 1_555
C66_6 C65_6 1_555 1_555
C69_6 O5_6 1_555 1_555
H147_6 C69_6 1_555 1_555
H148_8 C69_6 1_555 1_555
C70_6 O4_6 1_555 1_555
H149_8 C70_6 1_555 1_555
H150_6 C70_6 1_555 1_555
C72_7 O2_7 1_555 1_555
H151_7 C72_7 1_555 1_555
H152_7 C72_7 1_555 1_555
C73_6 C66_6 1_555 1_555
C77_8 H155_8 1_555 1_555
C78_8 C73_6 1_555 1_555
H156_8 C78_8 1_555 1_555
C79_6 C73_6 1_555 1_555
H157_6 C79_6 1_555 1_555
C80_8 N7_4 1_555 1_555
H158_8 C80_8 1_555 1_555
Mo2_6 O4_6 1_555 1_555
Mo2_6 O6_6 1_555 1_555
Mo3_6 O4_6 1_555 1_555
Mo3_6 O8_7 1_555 1_555
Mo5_7 O14_7 1_555 1_555
Mo5_7 O16_6 1_555 1_555
Mo6_6 O5_6 1_555 1_555
Mo6_6 O9_7 1_555 1_555
Mo6_6 O11_6 1_555 1_555
C66_6 C69_6 1_555 1_555
C66_6 C70_6 1_555 1_555
C71_7 C72_7 1_555 1_555
C77_8 C79_6 1_555 1_555
C78_8 C80_8 1_555 1_555
O1_8 C67_8 1_555 1_555
O9_8 Mo5_8 1_555 1_555
O12_8 Mo5_8 1_555 1_555
N5_8 Cu5_4 1_555 1_555
C67_8 H143_8 1_555 1_555
H144_8 C67_8 1_555 1_555
C68_8 O14_8 1_555 1_555
H145_8 C68_8 1_555 1_555
H146_8 C68_8 1_555 1_555
C71_8 C67_8 1_555 1_555
C72_8 O2_8 1_555 1_555
H151_8 C72_8 1_555 1_555
H152_8 C72_8 1_555 1_555
C74_8 N5_8 1_555 1_555
H153_8 C74_8 1_555 1_555
C75_8 C71_8 1_555 1_555
C76_8 C74_8 1_555 1_555
H154_8 C76_8 1_555 1_555
C81_8 N5_8 1_555 1_555
H159_8 C81_8 1_555 1_555
C82_8 C75_8 1_555 1_555
H160_8 C82_8 1_555 1_555
Mo5_8 O14_8 1_555 1_555
C68_8 C71_8 1_555 1_555
C71_8 C72_8 1_555 1_555
C75_8 C76_8 1_555 1_555
C81_8 C82_8 1_555 1_555
O11_7 Mo3_7 1_555 1_555
O13_7 Mo6_7 1_555 1_555
O17_7 Mo3_7 1_555 1_555
O20_7 Mo3_7 1_555 1_555
O21_7 Mo6_7 1_555 1_555
Mo6_7 O11_7 1_555 1_555
Mo4_7 O3_7 1_555 1_555
O3_7 Mn1_7 1_555 1_555
O4_7 Mn1_7 1_555 1_555
O5_7 Mn1_7 1_555 1_555
O6_7 Mo1_7 1_555 1_555
O7_7 Mo1_7 1_555 1_555
O10_7 Mo1_7 1_555 1_555
O15_7 Mo1_7 1_555 1_555
O16_7 Mo4_7 1_555 1_555
O18_7 Mo2_7 1_555 1_555
O22_7 Mo4_7 1_555 1_555
O24_7 Mo4_7 1_555 1_555
C65_7 O3_7 1_555 1_555
H141_7 C65_7 1_555 1_555
H142_7 C65_7 1_555 1_555
C66_7 C65_7 1_555 1_555
C69_7 O5_7 1_555 1_555
H147_7 C69_7 1_555 1_555
C70_7 O4_7 1_555 1_555
H150_7 C70_7 1_555 1_555
C73_7 C66_7 1_555 1_555
C79_7 C73_7 1_555 1_555
H157_7 C79_7 1_555 1_555
Mo1_7 O3_7 1_555 1_555
Mo2_7 O4_7 1_555 1_555
Mo2_7 O6_7 1_555 1_555
Mo4_7 O7_7 1_555 1_555
C66_7 C69_7 1_555 1_555
C66_7 C70_7 1_555 1_555
O11_8 Mo3_8 1_555 1_555
O13_8 Mo6_8 1_555 1_555
O17_8 Mo3_8 1_555 1_555
O20_8 Mo3_8 1_555 1_555
O21_8 Mo6_8 1_555 1_555
Mo6_8 O11_8 1_555 1_555
Mo4_8 O3_8 1_555 1_555
O3_8 Mn1_8 1_555 1_555
O4_8 Mn1_8 1_555 1_555
O5_8 Mn1_8 1_555 1_555
O6_8 Mo1_8 1_555 1_555
O7_8 Mo1_8 1_555 1_555
O10_8 Mo1_8 1_555 1_555
O15_8 Mo1_8 1_555 1_555
O16_8 Mo4_8 1_555 1_555
O18_8 Mo2_8 1_555 1_555
O22_8 Mo4_8 1_555 1_555
O24_8 Mo4_8 1_555 1_555
C65_8 O3_8 1_555 1_555
H141_8 C65_8 1_555 1_555
H142_8 C65_8 1_555 1_555
C66_8 C65_8 1_555 1_555
C69_8 O5_8 1_555 1_555
H147_8 C69_8 1_555 1_555
C70_8 O4_8 1_555 1_555
H150_8 C70_8 1_555 1_555
C73_8 C66_8 1_555 1_555
C79_8 C73_8 1_555 1_555
H157_8 C79_8 1_555 1_555
Mo1_8 O3_8 1_555 1_555
Mo2_8 O4_8 1_555 1_555
Mo2_8 O6_8 1_555 1_555
Mo4_8 O7_8 1_555 1_555
C66_8 C69_8 1_555 1_555
C66_8 C70_8 1_555 1_555

#END
