
###############################################################################
#
# This file contains modified crystal structure data generated from the
# MOF subset of the Cambridge Structural Database (CSD) v543 
# hosted by the Cambridge Crystallographic Data Centre (CCDC).
#
# This work is licensed under the Creative Commons
# Attribution-NonCommercial-ShareAlike 4.0 International License.
# To view a copy of this license, visit
# http://creativecommons.org/licenses/by-nc-sa/4.0/
# or send a letter to
# Creative Commons, PO Box 1866, Mountain View, CA 94042, USA.
#
# CIF created using the CSD Python API on 29 September 2022
# The structure has been converted into the P1 space group
# The structure has a 3D framework
# The original CSD entry ZUKXIP03 is in the orthorhombic crystal system
# The framework has been calculated to contain at least 10.0% void space
# The void calculation uses a probe of radius 1.32A, grid spacing 0.4
# H atom positions have been added when not included in the experimental data
# Generated hydrogen atom positions removed from atoms on special positions
#
###############################################################################

data_ZUKXIP03
_chemical_formula_moiety         '(C320 H304 O192 Zr42)n'
_symmetry_cell_setting           triclinic
_symmetry_space_group_name_H-M   'P 1'
_symmetry_Int_Tables_number      1
_space_group_name_Hall           'P 1'
loop_
_symmetry_equiv_pos_site_id
_symmetry_equiv_pos_as_xyz
1 x,y,z
_cell_length_a                   20.8288(14)
_cell_length_b                   32.974(2)
_cell_length_c                   33.604(2)
_cell_angle_alpha                90
_cell_angle_beta                 90
_cell_angle_gamma                90
_cell_volume                     23079.5
loop_
_atom_site_label
_atom_site_type_symbol
_atom_site_fract_x
_atom_site_fract_y
_atom_site_fract_z
Zr1 Zr 0.000000 0.500000 0.42702(4)
O1 O 0.000000 0.4445(4) 0.4640(3)
O2 O 0.0860(7) 0.500000 0.4641(3)
O3 O 0.0637(4) 0.4590(2) 0.39392(17)
C1 C 0.1031(7) 0.4312(3) 0.4044(3)
O4 O 0.1927(7) 0.4487(4) 0.500000
O5 O 0.1171(5) 0.4240(2) 0.4400(2)
O6 O 0.0786(6) 0.3792(3) 0.500000
C2 C 0.1329(7) 0.4075(3) 0.3726(3)
C3 C 0.1731(6) 0.3759(4) 0.3811(3)
C4 C 0.1193(8) 0.4148(4) 0.3329(3)
C5 C 0.1991(6) 0.3516(3) 0.3528(3)
H1 H 0.183249 0.370597 0.408212
C6 C 0.1489(8) 0.3927(4) 0.3033(3)
H2 H 0.089249 0.435302 0.326048
C7 C 0.1886(6) 0.3602(3) 0.3127(3)
H3 H 0.224438 0.328881 0.360198
H4 H 0.142145 0.399813 0.276208
C8 C 0.2197(6) 0.3379(3) 0.2796(3)
C9 C 0.2161(6) 0.2941(4) 0.2777(3)
C10 C 0.250000 0.3569(4) 0.250000
C11 C 0.250000 0.2731(4) 0.250000
O7 O 0.1775(6) 0.2723(3) 0.3073(2)
H5 H 0.249999 0.385726 0.249999
H6 H 0.182820 0.282943 0.329818
O8 O 0.000000 0.5555(4) 0.4640(3)
O12 O 0.0637(4) 0.5410(2) 0.39392(17)
Zr3 Zr 0.08469(8) 0.44627(4) 0.500000
Zr4 Zr 0.08469(8) 0.55373(4) 0.500000
O13 O 0.000000 0.4445(4) 0.5360(3)
O15 O 0.0860(7) 0.500000 0.5359(3)
O16 O 0.1171(5) 0.4240(2) 0.5600(2)
O17 O 0.000000 0.5555(4) 0.5360(3)
C12 C 0.2803(6) 0.3379(3) 0.2204(3)
C13 C 0.250000 0.2269(4) 0.250000
C14 C 0.2839(6) 0.2941(4) 0.2223(3)
C15 C 0.3114(6) 0.3602(3) 0.1873(3)
C16 C 0.2161(6) 0.2059(4) 0.2223(3)
C17 C 0.2839(6) 0.2059(4) 0.2777(3)
O22 O 0.3225(6) 0.2723(3) 0.1927(2)
C18 C 0.3009(6) 0.3516(3) 0.1472(3)
C19 C 0.3511(8) 0.3927(4) 0.1967(3)
C20 C 0.2197(6) 0.1621(3) 0.2204(3)
O23 O 0.1775(6) 0.2277(3) 0.1927(2)
C21 C 0.2803(6) 0.1621(3) 0.2796(3)
O24 O 0.3225(6) 0.2277(3) 0.3073(2)
H7 H 0.317180 0.282943 0.170182
H8 H 0.275562 0.328881 0.139802
C22 C 0.3269(6) 0.3759(4) 0.1189(3)
C23 C 0.3807(8) 0.4148(4) 0.1671(3)
H9 H 0.357855 0.399813 0.223792
C24 C 0.1886(6) 0.1398(3) 0.1873(3)
C25 C 0.250000 0.1431(4) 0.250000
H10 H 0.182820 0.217057 0.170182
C26 C 0.3114(6) 0.1398(3) 0.3127(3)
H11 H 0.317180 0.217057 0.329818
C27 C 0.3671(7) 0.4075(3) 0.1274(3)
H12 H 0.316751 0.370597 0.091788
H13 H 0.410751 0.435302 0.173952
C28 C 0.1991(6) 0.1484(3) 0.1472(3)
C29 C 0.1489(8) 0.1073(4) 0.1967(3)
H14 H 0.249999 0.114274 0.250001
C30 C 0.3009(6) 0.1484(3) 0.3528(3)
C31 C 0.3511(8) 0.1073(4) 0.3033(3)
C32 C 0.3969(7) 0.4312(3) 0.0956(3)
H15 H 0.224438 0.171119 0.139802
C33 C 0.1731(6) 0.1241(4) 0.1189(3)
H16 H 0.142145 0.100187 0.223792
C34 C 0.1193(8) 0.0852(4) 0.1671(3)
C35 C 0.3269(6) 0.1241(4) 0.3811(3)
H17 H 0.275562 0.171119 0.360198
H18 H 0.357855 0.100187 0.276208
C36 C 0.3807(8) 0.0852(4) 0.3329(3)
O25 O 0.3829(5) 0.4240(2) 0.0600(2)
O26 O 0.4363(4) 0.4590(2) 0.10608(17)
C37 C 0.1329(7) 0.0925(3) 0.1274(3)
H19 H 0.183249 0.129403 0.091788
H20 H 0.089249 0.064698 0.173952
C38 C 0.3671(7) 0.0925(3) 0.3726(3)
H21 H 0.316751 0.129403 0.408212
H22 H 0.410751 0.064698 0.326048
Zr6 Zr 0.41531(8) 0.44627(4) 0.000000
Zr7 Zr 0.500000 0.500000 0.07298(4)
C39 C 0.1031(7) 0.0688(3) 0.0956(3)
C40 C 0.3969(7) 0.0688(3) 0.4044(3)
O27 O 0.1171(5) 0.0760(2) 0.0600(2)
O28 O 0.0637(4) 0.0410(2) 0.10608(17)
O29 O 0.4363(4) 0.0410(2) 0.39392(17)
O30 O 0.3829(5) 0.0760(2) 0.4400(2)
Zr8 Zr 0.08469(8) 0.05373(4) 0.000000
Zr9 Zr 0.000000 0.000000 0.07298(4)
Zr10 Zr 0.500000 -0.000000 0.42702(4)
Zr11 Zr 0.41531(8) 0.05373(4) 0.500000
Zr6_2 Zr 0.41531(8) 0.44627(4) 1.000000
Zr8_2 Zr 0.08469(8) 0.05373(4) 1.000000
Zr9_2 Zr -0.000000 1.000000 0.07298(4)
Zr10_2 Zr 0.500000 1.000000 0.42702(4)
Zr1_2 Zr 1.000000 0.500000 0.42702(4)
O1_2 O 1.000000 0.4445(4) 0.4640(3)
Zr2 Zr 0.91531(8) 0.44627(4) 0.500000
O8_2 O 1.000000 0.5555(4) 0.4640(3)
O9 O 0.9140(7) 0.500000 0.4641(3)
O10 O 0.9363(4) 0.5410(2) 0.39392(17)
O11 O 0.9363(4) 0.4590(2) 0.39392(17)
Zr5 Zr 0.91531(8) 0.55373(4) 0.500000
O13_2 O 1.000000 0.4445(4) 0.5360(3)
O14 O 0.9140(7) 0.500000 0.5359(3)
O17_2 O 1.000000 0.5555(4) 0.5360(3)
O18 O 0.9214(6) 0.6208(3) 0.500000
O19 O 0.8829(5) 0.5760(2) 0.5600(2)
O20 O 0.8829(5) 0.5760(2) 0.4400(2)
O21 O 0.8073(7) 0.5513(4) 0.500000
Zr9_3 Zr 1.000000 0.000000 0.07298(4)
Zr9_4 Zr 1.000000 1.000000 0.07298(4)
C1_2 C 0.8969(7) 0.5688(3) 0.4044(3)
C2_2 C 0.8671(7) 0.5925(3) 0.3726(3)
C3_2 C 0.8269(6) 0.6241(4) 0.3811(3)
C4_2 C 0.8807(8) 0.5852(4) 0.3329(3)
C5_2 C 0.8009(6) 0.6484(3) 0.3528(3)
H1_2 H 0.816751 0.629403 0.408212
C6_2 C 0.8511(8) 0.6073(4) 0.3033(3)
H2_2 H 0.910751 0.564698 0.326048
C7_2 C 0.8114(6) 0.6398(3) 0.3127(3)
H3_2 H 0.775562 0.671119 0.360198
H4_2 H 0.857855 0.600187 0.276208
C8_2 C 0.7803(6) 0.6621(3) 0.2796(3)
C9_2 C 0.7839(6) 0.7059(4) 0.2777(3)
C10_2 C 0.750000 0.6431(4) 0.250000
C11_2 C 0.750000 0.7269(4) 0.250000
O7_2 O 0.8225(6) 0.7277(3) 0.3073(2)
H5_2 H 0.750001 0.614274 0.249999
H6_2 H 0.817180 0.717057 0.329818
C12_2 C 0.7197(6) 0.6621(3) 0.2204(3)
C13_2 C 0.750000 0.7731(4) 0.250000
C14_2 C 0.7161(6) 0.7059(4) 0.2223(3)
C15_2 C 0.6886(6) 0.6398(3) 0.1873(3)
C16_2 C 0.7839(6) 0.7941(4) 0.2223(3)
C17_2 C 0.7161(6) 0.7941(4) 0.2777(3)
O22_2 O 0.6775(6) 0.7277(3) 0.1927(2)
C18_2 C 0.6991(6) 0.6484(3) 0.1472(3)
C19_2 C 0.6489(8) 0.6073(4) 0.1967(3)
C20_2 C 0.7803(6) 0.8379(3) 0.2204(3)
O23_2 O 0.8225(6) 0.7723(3) 0.1927(2)
C21_2 C 0.7197(6) 0.8379(3) 0.2796(3)
O24_2 O 0.6775(6) 0.7723(3) 0.3073(2)
H7_2 H 0.682820 0.717057 0.170182
H8_2 H 0.724438 0.671119 0.139802
C22_2 C 0.6731(6) 0.6241(4) 0.1189(3)
C23_2 C 0.6193(8) 0.5852(4) 0.1671(3)
H9_2 H 0.642145 0.600187 0.223792
C24_2 C 0.8114(6) 0.8602(3) 0.1873(3)
C25_2 C 0.750000 0.8569(4) 0.250000
H10_2 H 0.817180 0.782943 0.170182
C26_2 C 0.6886(6) 0.8602(3) 0.3127(3)
H11_2 H 0.682820 0.782943 0.329818
C27_2 C 0.6329(7) 0.5925(3) 0.1274(3)
H12_2 H 0.683249 0.629403 0.091788
H13_2 H 0.589249 0.564698 0.173952
C28_2 C 0.8009(6) 0.8516(3) 0.1472(3)
C29_2 C 0.8511(8) 0.8927(4) 0.1967(3)
H14_2 H 0.750001 0.885726 0.250001
C30_2 C 0.6991(6) 0.8516(3) 0.3528(3)
C31_2 C 0.6489(8) 0.8927(4) 0.3033(3)
C32_2 C 0.6031(7) 0.5688(3) 0.0956(3)
H15_2 H 0.775562 0.828881 0.139802
C33_2 C 0.8269(6) 0.8759(4) 0.1189(3)
H16_2 H 0.857855 0.899813 0.223792
C34_2 C 0.8807(8) 0.9148(4) 0.1671(3)
C35_2 C 0.6731(6) 0.8759(4) 0.3811(3)
H17_2 H 0.724438 0.828881 0.360198
H18_2 H 0.642145 0.899813 0.276208
C36_2 C 0.6193(8) 0.9148(4) 0.3329(3)
O25_2 O 0.6171(5) 0.5760(2) 0.0600(2)
O26_2 O 0.5637(4) 0.5410(2) 0.10608(17)
C37_2 C 0.8671(7) 0.9075(3) 0.1274(3)
H19_2 H 0.816751 0.870597 0.091788
H20_2 H 0.910751 0.935302 0.173952
C38_2 C 0.6329(7) 0.9075(3) 0.3726(3)
H21_2 H 0.683249 0.870597 0.408212
H22_2 H 0.589249 0.935302 0.326048
Zr6_3 Zr 0.58469(8) 0.55373(4) 0.000000
C39_2 C 0.8969(7) 0.9312(3) 0.0956(3)
C40_2 C 0.6031(7) 0.9312(3) 0.4044(3)
O27_2 O 0.8829(5) 0.9240(2) 0.0600(2)
O28_2 O 0.9363(4) 0.9590(2) 0.10608(17)
O29_2 O 0.5637(4) 0.9590(2) 0.39392(17)
O30_2 O 0.6171(5) 0.9240(2) 0.4400(2)
Zr8_3 Zr 0.91531(8) 0.94627(4) 0.000000
Zr11_2 Zr 0.58469(8) 0.94627(4) 0.500000
Zr6_4 Zr 0.58469(8) 0.55373(4) 1.000000
Zr8_4 Zr 0.91531(8) 0.94627(4) 1.000000
Zr9_5 Zr 0.000000 -0.000000 0.92702(4)
Zr10_3 Zr 0.500000 0.000000 0.57298(4)
Zr6_5 Zr 0.41531(8) 0.55373(4) 0.000000
Zr8_5 Zr 0.08469(8) 0.94627(4) 0.000000
Zr1_3 Zr 0.000000 0.500000 0.57298(4)
O3_2 O 0.0637(4) 0.5410(2) 0.60608(17)
C1_3 C 0.1031(7) 0.5688(3) 0.5956(3)
O4_2 O 0.1927(7) 0.5513(4) 0.500000
O5_2 O 0.1171(5) 0.5760(2) 0.5600(2)
O6_2 O 0.0786(6) 0.6208(3) 0.500000
C2_3 C 0.1329(7) 0.5925(3) 0.6274(3)
C3_3 C 0.1731(6) 0.6241(4) 0.6189(3)
C4_3 C 0.1193(8) 0.5852(4) 0.6671(3)
C5_3 C 0.1991(6) 0.6484(3) 0.6472(3)
H1_3 H 0.183249 0.629403 0.591788
C6_3 C 0.1489(8) 0.6073(4) 0.6967(3)
H2_3 H 0.089249 0.564698 0.673952
C7_3 C 0.1886(6) 0.6398(3) 0.6873(3)
H3_3 H 0.224438 0.671119 0.639802
H4_3 H 0.142145 0.600187 0.723792
C8_3 C 0.2197(6) 0.6621(3) 0.7204(3)
C9_3 C 0.2161(6) 0.7059(4) 0.7223(3)
C10_3 C 0.250000 0.6431(4) 0.750000
C11_3 C 0.250000 0.7269(4) 0.750000
O7_3 O 0.1775(6) 0.7277(3) 0.6927(2)
H5_3 H 0.249999 0.614274 0.750001
H6_3 H 0.182820 0.717057 0.670182
O12_2 O 0.0637(4) 0.4590(2) 0.60608(17)
O16_2 O 0.1171(5) 0.5760(2) 0.4400(2)
C12_3 C 0.2803(6) 0.6621(3) 0.7796(3)
C13_3 C 0.250000 0.7731(4) 0.750000
C14_3 C 0.2839(6) 0.7059(4) 0.7777(3)
C15_3 C 0.3114(6) 0.6398(3) 0.8127(3)
C16_3 C 0.2161(6) 0.7941(4) 0.7777(3)
C17_3 C 0.2839(6) 0.7941(4) 0.7223(3)
O22_3 O 0.3225(6) 0.7277(3) 0.8073(2)
C18_3 C 0.3009(6) 0.6484(3) 0.8528(3)
C19_3 C 0.3511(8) 0.6073(4) 0.8033(3)
C20_3 C 0.2197(6) 0.8379(3) 0.7796(3)
O23_3 O 0.1775(6) 0.7723(3) 0.8073(2)
C21_3 C 0.2803(6) 0.8379(3) 0.7204(3)
O24_3 O 0.3225(6) 0.7723(3) 0.6927(2)
H7_3 H 0.317180 0.717057 0.829818
H8_3 H 0.275562 0.671119 0.860198
C22_3 C 0.3269(6) 0.6241(4) 0.8811(3)
C23_3 C 0.3807(8) 0.5852(4) 0.8329(3)
H9_3 H 0.357855 0.600187 0.776208
C24_3 C 0.1886(6) 0.8602(3) 0.8127(3)
C25_3 C 0.250000 0.8569(4) 0.750000
H10_3 H 0.182820 0.782943 0.829818
C26_3 C 0.3114(6) 0.8602(3) 0.6873(3)
H11_3 H 0.317180 0.782943 0.670182
C27_3 C 0.3671(7) 0.5925(3) 0.8726(3)
H12_3 H 0.316751 0.629403 0.908212
H13_3 H 0.410751 0.564698 0.826048
C28_3 C 0.1991(6) 0.8516(3) 0.8528(3)
C29_3 C 0.1489(8) 0.8927(4) 0.8033(3)
H14_3 H 0.249999 0.885726 0.749999
C30_3 C 0.3009(6) 0.8516(3) 0.6472(3)
C31_3 C 0.3511(8) 0.8927(4) 0.6967(3)
C32_3 C 0.3969(7) 0.5688(3) 0.9044(3)
H15_3 H 0.224438 0.828881 0.860198
C33_3 C 0.1731(6) 0.8759(4) 0.8811(3)
H16_3 H 0.142145 0.899813 0.776208
C34_3 C 0.1193(8) 0.9148(4) 0.8329(3)
C35_3 C 0.3269(6) 0.8759(4) 0.6189(3)
H17_3 H 0.275562 0.828881 0.639802
H18_3 H 0.357855 0.899813 0.723792
C36_3 C 0.3807(8) 0.9148(4) 0.6671(3)
O25_3 O 0.3829(5) 0.5760(2) 0.9400(2)
O26_3 O 0.4363(4) 0.5410(2) 0.89392(17)
C37_3 C 0.1329(7) 0.9075(3) 0.8726(3)
H19_3 H 0.183249 0.870597 0.908212
H20_3 H 0.089249 0.935302 0.826048
C38_3 C 0.3671(7) 0.9075(3) 0.6274(3)
H21_3 H 0.316751 0.870597 0.591788
H22_3 H 0.410751 0.935302 0.673952
Zr6_6 Zr 0.41531(8) 0.55373(4) 1.000000
Zr7_2 Zr 0.500000 0.500000 0.92702(4)
C39_3 C 0.1031(7) 0.9312(3) 0.9044(3)
C40_3 C 0.3969(7) 0.9312(3) 0.5956(3)
O27_3 O 0.1171(5) 0.9240(2) 0.9400(2)
O28_3 O 0.0637(4) 0.9590(2) 0.89392(17)
O29_3 O 0.4363(4) 0.9590(2) 0.60608(17)
O30_3 O 0.3829(5) 0.9240(2) 0.5600(2)
Zr8_6 Zr 0.08469(8) 0.94627(4) 1.000000
Zr9_6 Zr 0.000000 1.000000 0.92702(4)
Zr10_4 Zr 0.500000 1.000000 0.57298(4)
Zr11_3 Zr 0.41531(8) 0.94627(4) 0.500000
Zr9_7 Zr 1.000000 -0.000000 0.92702(4)
Zr1_4 Zr 1.000000 0.500000 0.57298(4)
O10_2 O 0.9363(4) 0.4590(2) 0.60608(17)
O11_2 O 0.9363(4) 0.5410(2) 0.60608(17)
O18_2 O 0.9214(6) 0.3792(3) 0.500000
O19_2 O 0.8829(5) 0.4240(2) 0.4400(2)
O20_2 O 0.8829(5) 0.4240(2) 0.5600(2)
O21_2 O 0.8073(7) 0.4487(4) 0.500000
Zr9_8 Zr 1.000000 1.000000 0.92702(4)
Zr6_7 Zr 0.58469(8) 0.44627(4) 0.000000
Zr8_7 Zr 0.91531(8) 0.05373(4) 0.000000
C1_4 C 0.8969(7) 0.4312(3) 0.5956(3)
C2_4 C 0.8671(7) 0.4075(3) 0.6274(3)
C3_4 C 0.8269(6) 0.3759(4) 0.6189(3)
C4_4 C 0.8807(8) 0.4148(4) 0.6671(3)
C5_4 C 0.8009(6) 0.3516(3) 0.6472(3)
H1_4 H 0.816751 0.370597 0.591788
C6_4 C 0.8511(8) 0.3927(4) 0.6967(3)
H2_4 H 0.910751 0.435302 0.673952
C7_4 C 0.8114(6) 0.3602(3) 0.6873(3)
H3_4 H 0.775562 0.328881 0.639802
H4_4 H 0.857855 0.399813 0.723792
C8_4 C 0.7803(6) 0.3379(3) 0.7204(3)
C9_4 C 0.7839(6) 0.2941(4) 0.7223(3)
C10_4 C 0.750000 0.3569(4) 0.750000
C11_4 C 0.750000 0.2731(4) 0.750000
O7_4 O 0.8225(6) 0.2723(3) 0.6927(2)
H5_4 H 0.750001 0.385726 0.750001
H6_4 H 0.817180 0.282943 0.670182
C12_4 C 0.7197(6) 0.3379(3) 0.7796(3)
C13_4 C 0.750000 0.2269(4) 0.750000
C14_4 C 0.7161(6) 0.2941(4) 0.7777(3)
C15_4 C 0.6886(6) 0.3602(3) 0.8127(3)
C16_4 C 0.7839(6) 0.2059(4) 0.7777(3)
C17_4 C 0.7161(6) 0.2059(4) 0.7223(3)
O22_4 O 0.6775(6) 0.2723(3) 0.8073(2)
C18_4 C 0.6991(6) 0.3516(3) 0.8528(3)
C19_4 C 0.6489(8) 0.3927(4) 0.8033(3)
C20_4 C 0.7803(6) 0.1621(3) 0.7796(3)
O23_4 O 0.8225(6) 0.2277(3) 0.8073(2)
C21_4 C 0.7197(6) 0.1621(3) 0.7204(3)
O24_4 O 0.6775(6) 0.2277(3) 0.6927(2)
H7_4 H 0.682820 0.282943 0.829818
H8_4 H 0.724438 0.328881 0.860198
C22_4 C 0.6731(6) 0.3759(4) 0.8811(3)
C23_4 C 0.6193(8) 0.4148(4) 0.8329(3)
H9_4 H 0.642145 0.399813 0.776208
C24_4 C 0.8114(6) 0.1398(3) 0.8127(3)
C25_4 C 0.750000 0.1431(4) 0.750000
H10_4 H 0.817180 0.217057 0.829818
C26_4 C 0.6886(6) 0.1398(3) 0.6873(3)
H11_4 H 0.682820 0.217057 0.670182
C27_4 C 0.6329(7) 0.4075(3) 0.8726(3)
H12_4 H 0.683249 0.370597 0.908212
H13_4 H 0.589249 0.435302 0.826048
C28_4 C 0.8009(6) 0.1484(3) 0.8528(3)
C29_4 C 0.8511(8) 0.1073(4) 0.8033(3)
H14_4 H 0.750001 0.114274 0.749999
C30_4 C 0.6991(6) 0.1484(3) 0.6472(3)
C31_4 C 0.6489(8) 0.1073(4) 0.6967(3)
C32_4 C 0.6031(7) 0.4312(3) 0.9044(3)
H15_4 H 0.775562 0.171119 0.860198
C33_4 C 0.8269(6) 0.1241(4) 0.8811(3)
H16_4 H 0.857855 0.100187 0.776208
C34_4 C 0.8807(8) 0.0852(4) 0.8329(3)
C35_4 C 0.6731(6) 0.1241(4) 0.6189(3)
H17_4 H 0.724438 0.171119 0.639802
H18_4 H 0.642145 0.100187 0.723792
C36_4 C 0.6193(8) 0.0852(4) 0.6671(3)
O25_4 O 0.6171(5) 0.4240(2) 0.9400(2)
O26_4 O 0.5637(4) 0.4590(2) 0.89392(17)
C37_4 C 0.8671(7) 0.0925(3) 0.8726(3)
H19_4 H 0.816751 0.129403 0.908212
H20_4 H 0.910751 0.064698 0.826048
C38_4 C 0.6329(7) 0.0925(3) 0.6274(3)
H21_4 H 0.683249 0.129403 0.591788
H22_4 H 0.589249 0.064698 0.673952
Zr6_8 Zr 0.58469(8) 0.44627(4) 1.000000
C39_4 C 0.8969(7) 0.0688(3) 0.9044(3)
C40_4 C 0.6031(7) 0.0688(3) 0.5956(3)
O27_4 O 0.8829(5) 0.0760(2) 0.9400(2)
O28_4 O 0.9363(4) 0.0410(2) 0.89392(17)
O29_4 O 0.5637(4) 0.0410(2) 0.60608(17)
O30_4 O 0.6171(5) 0.0760(2) 0.5600(2)
Zr8_8 Zr 0.91531(8) 0.05373(4) 1.000000
Zr11_4 Zr 0.58469(8) 0.05373(4) 0.500000
O15_2 O 0.0860(7) -0.000000 0.0359(3)
O17_3 O 0.000000 0.0555(4) 0.0360(3)
O2_2 O 0.0860(7) -0.000000 0.9641(3)
O8_3 O 0.000000 0.0555(4) 0.9640(3)
O12_3 O 0.0637(4) 0.0410(2) 0.89392(17)
O4_3 O 0.1927(7) 0.9487(4) 0.000000
O6_3 O 0.0786(6) 0.8792(3) 0.000000
O13_3 O 0.000000 0.9445(4) 0.0360(3)
O15_3 O 0.0860(7) 1.000000 0.0359(3)
O16_3 O 0.1171(5) 0.9240(2) 0.0600(2)
H24 H 0.208587 0.948953 0.0278599
H26 H 0.114655 0.867839 0.0157949
O1_3 O 0.000000 0.9445(4) 0.9640(3)
O2_3 O 0.0860(7) 1.000000 0.9641(3)
O4_4 O 0.1927(7) 0.9487(4) 1.000000
O6_4 O 0.0786(6) 0.8792(3) 1.000000
H23 H 0.207193 0.973682 0.986159
H25 H 0.0812397 0.86905 0.972227
O14_2 O 0.9140(7) -0.000000 0.0359(3)
O17_4 O 1.000000 0.0555(4) 0.0360(3)
O18_3 O 0.9214(6) 0.1208(3) 0.000000
O19_3 O 0.8829(5) 0.0760(2) 0.0600(2)
O21_3 O 0.8073(7) 0.0513(4) 0.000000
H28 H 0.885345 0.132161 0.0157949
H30 H 0.791413 0.0510473 0.0278599
O8_4 O 1.000000 0.0555(4) 0.9640(3)
O9_2 O 0.9140(7) -0.000000 0.9641(3)
O18_4 O 0.9214(6) 0.1208(3) 1.000000
O21_4 O 0.8073(7) 0.0513(4) 1.000000
H27 H 0.91876 0.13095 0.972227
H29 H 0.792807 0.0263176 0.986159
O13_4 O 1.000000 0.9445(4) 0.0360(3)
O14_3 O 0.9140(7) 1.000000 0.0359(3)
O1_4 O 1.000000 0.9445(4) 0.9640(3)
O9_3 O 0.9140(7) 1.000000 0.9641(3)
O11_3 O 0.9363(4) 0.9590(2) 0.89392(17)
O4_5 O 0.1927(7) 0.0513(4) 0.000000
O6_5 O 0.0786(6) 0.1208(3) 0.000000
H23_2 H 0.207193 0.0263176 0.013841
H25_2 H 0.0812397 0.13095 0.0277728
O4_6 O 0.1927(7) 0.0513(4) 1.000000
O6_6 O 0.0786(6) 0.1208(3) 1.000000
O16_4 O 0.1171(5) 0.0760(2) 0.9400(2)
H24_2 H 0.208587 0.0510473 0.97214
H26_2 H 0.114655 0.132161 0.984205
O12_4 O 0.0637(4) 0.9590(2) 0.10608(17)
O11_4 O 0.9363(4) 0.0410(2) 0.10608(17)
O18_5 O 0.9214(6) 0.8792(3) 0.000000
O21_5 O 0.8073(7) 0.9487(4) 0.000000
H27_2 H 0.91876 0.86905 0.0277728
H29_2 H 0.792807 0.973682 0.013841
O18_6 O 0.9214(6) 0.8792(3) 1.000000
O19_4 O 0.8829(5) 0.9240(2) 0.9400(2)
O21_6 O 0.8073(7) 0.9487(4) 1.000000
H28_2 H 0.885345 0.867839 0.984205
H30_2 H 0.791413 0.948953 0.97214
O4_7 O 0.6927(7) 0.4487(4) 0.000000
O6_7 O 0.5786(6) 0.3792(3) 0.000000
O13_5 O 0.500000 0.4445(4) 0.0360(3)
O14_4 O 0.4140(7) 0.500000 0.0359(3)
O15_4 O 0.5860(7) 0.500000 0.0359(3)
O16_5 O 0.6171(5) 0.4240(2) 0.0600(2)
O17_5 O 0.500000 0.5555(4) 0.0360(3)
O18_7 O 0.4214(6) 0.6208(3) 0.000000
O19_5 O 0.3829(5) 0.5760(2) 0.0600(2)
O21_7 O 0.3073(7) 0.5513(4) 0.000000
H24_3 H 0.708587 0.448953 0.0278599
H26_3 H 0.614655 0.367839 0.0157949
H28_3 H 0.385345 0.632161 0.0157949
H30_3 H 0.291413 0.551047 0.0278599
O1_5 O 0.500000 0.4445(4) 0.9640(3)
O2_4 O 0.5860(7) 0.500000 0.9641(3)
O4_8 O 0.6927(7) 0.4487(4) 1.000000
O6_8 O 0.5786(6) 0.3792(3) 1.000000
O8_5 O 0.500000 0.5555(4) 0.9640(3)
O9_4 O 0.4140(7) 0.500000 0.9641(3)
O11_5 O 0.4363(4) 0.4590(2) 0.89392(17)
O12_5 O 0.5637(4) 0.5410(2) 0.89392(17)
O18_8 O 0.4214(6) 0.6208(3) 1.000000
O21_8 O 0.3073(7) 0.5513(4) 1.000000
H23_3 H 0.707193 0.473682 0.986159
H25_3 H 0.58124 0.36905 0.972227
H27_3 H 0.41876 0.63095 0.972227
H29_3 H 0.292807 0.526318 0.986159
O4_9 O 0.6927(7) 0.5513(4) 0.000000
O6_9 O 0.5786(6) 0.6208(3) 0.000000
O11_6 O 0.4363(4) 0.5410(2) 0.10608(17)
O12_6 O 0.5637(4) 0.4590(2) 0.10608(17)
O18_9 O 0.4214(6) 0.3792(3) 0.000000
O21_9 O 0.3073(7) 0.4487(4) 0.000000
H23_4 H 0.707193 0.526318 0.013841
H25_4 H 0.58124 0.63095 0.0277728
H27_4 H 0.41876 0.36905 0.0277728
H29_4 H 0.292807 0.473682 0.013841
O4_10 O 0.6927(7) 0.5513(4) 1.000000
O6_10 O 0.5786(6) 0.6208(3) 1.000000
O16_6 O 0.6171(5) 0.5760(2) 0.9400(2)
O18_10 O 0.4214(6) 0.3792(3) 1.000000
O19_6 O 0.3829(5) 0.4240(2) 0.9400(2)
O21_10 O 0.3073(7) 0.4487(4) 1.000000
H24_4 H 0.708587 0.551047 0.97214
H26_4 H 0.614655 0.632161 0.984205
H28_4 H 0.385345 0.367839 0.984205
H30_4 H 0.291413 0.448953 0.97214
O2_5 O 0.5860(7) -0.000000 0.4641(3)
O8_6 O 0.500000 0.0555(4) 0.4640(3)
O9_5 O 0.4140(7) -0.000000 0.4641(3)
O12_7 O 0.5637(4) 0.0410(2) 0.39392(17)
O14_5 O 0.4140(7) -0.000000 0.5359(3)
O15_5 O 0.5860(7) -0.000000 0.5359(3)
O17_6 O 0.500000 0.0555(4) 0.5360(3)
O18_11 O 0.4214(6) 0.1208(3) 0.500000
O19_7 O 0.3829(5) 0.0760(2) 0.5600(2)
O21_11 O 0.3073(7) 0.0513(4) 0.500000
O1_6 O 0.500000 0.9445(4) 0.4640(3)
O2_6 O 0.5860(7) 1.000000 0.4641(3)
O4_11 O 0.6927(7) 0.9487(4) 0.500000
O6_11 O 0.5786(6) 0.8792(3) 0.500000
O9_6 O 0.4140(7) 1.000000 0.4641(3)
O11_7 O 0.4363(4) 0.9590(2) 0.39392(17)
O13_6 O 0.500000 0.9445(4) 0.5360(3)
O14_6 O 0.4140(7) 1.000000 0.5359(3)
O15_6 O 0.5860(7) 1.000000 0.5359(3)
O16_7 O 0.6171(5) 0.9240(2) 0.5600(2)
O4_12 O 0.6927(7) 0.0513(4) 0.500000
O6_12 O 0.5786(6) 0.1208(3) 0.500000
O11_8 O 0.4363(4) 0.0410(2) 0.60608(17)
O16_8 O 0.6171(5) 0.0760(2) 0.4400(2)
O12_8 O 0.5637(4) 0.9590(2) 0.60608(17)
O18_12 O 0.4214(6) 0.8792(3) 0.500000
O19_8 O 0.3829(5) 0.9240(2) 0.4400(2)
O21_12 O 0.3073(7) 0.9487(4) 0.500000
C1_5 C 0.8969(7) 0.5688(3) 0.5956(3)
C2_5 C 0.8671(7) 0.5925(3) 0.6274(3)
C3_5 C 0.8269(6) 0.6241(4) 0.6189(3)
C4_5 C 0.8807(8) 0.5852(4) 0.6671(3)
C5_5 C 0.8009(6) 0.6484(3) 0.6472(3)
H1_5 H 0.816751 0.629403 0.591788
C6_5 C 0.8511(8) 0.6073(4) 0.6967(3)
H2_5 H 0.910751 0.564698 0.673952
C7_5 C 0.8114(6) 0.6398(3) 0.6873(3)
H3_5 H 0.775562 0.671119 0.639802
H4_5 H 0.857855 0.600187 0.723792
C8_5 C 0.7803(6) 0.6621(3) 0.7204(3)
C9_5 C 0.7839(6) 0.7059(4) 0.7223(3)
C10_5 C 0.750000 0.6431(4) 0.750000
C11_5 C 0.750000 0.7269(4) 0.750000
O7_5 O 0.8225(6) 0.7277(3) 0.6927(2)
H5_5 H 0.750001 0.614274 0.750001
H6_5 H 0.817180 0.717057 0.670182
C12_5 C 0.7197(6) 0.6621(3) 0.7796(3)
C13_5 C 0.750000 0.7731(4) 0.750000
C14_5 C 0.7161(6) 0.7059(4) 0.7777(3)
C15_5 C 0.6886(6) 0.6398(3) 0.8127(3)
C16_5 C 0.7839(6) 0.7941(4) 0.7777(3)
C17_5 C 0.7161(6) 0.7941(4) 0.7223(3)
O22_5 O 0.6775(6) 0.7277(3) 0.8073(2)
C18_5 C 0.6991(6) 0.6484(3) 0.8528(3)
C19_5 C 0.6489(8) 0.6073(4) 0.8033(3)
C20_5 C 0.7803(6) 0.8379(3) 0.7796(3)
O23_5 O 0.8225(6) 0.7723(3) 0.8073(2)
C21_5 C 0.7197(6) 0.8379(3) 0.7204(3)
O24_5 O 0.6775(6) 0.7723(3) 0.6927(2)
H7_5 H 0.682820 0.717057 0.829818
H8_5 H 0.724438 0.671119 0.860198
C22_5 C 0.6731(6) 0.6241(4) 0.8811(3)
C23_5 C 0.6193(8) 0.5852(4) 0.8329(3)
H9_5 H 0.642145 0.600187 0.776208
C24_5 C 0.8114(6) 0.8602(3) 0.8127(3)
C25_5 C 0.750000 0.8569(4) 0.750000
H10_5 H 0.817180 0.782943 0.829818
C26_5 C 0.6886(6) 0.8602(3) 0.6873(3)
H11_5 H 0.682820 0.782943 0.670182
C27_5 C 0.6329(7) 0.5925(3) 0.8726(3)
H12_5 H 0.683249 0.629403 0.908212
H13_5 H 0.589249 0.564698 0.826048
C28_5 C 0.8009(6) 0.8516(3) 0.8528(3)
C29_5 C 0.8511(8) 0.8927(4) 0.8033(3)
H14_5 H 0.750001 0.885726 0.749999
C30_5 C 0.6991(6) 0.8516(3) 0.6472(3)
C31_5 C 0.6489(8) 0.8927(4) 0.6967(3)
C32_5 C 0.6031(7) 0.5688(3) 0.9044(3)
H15_5 H 0.775562 0.828881 0.860198
C33_5 C 0.8269(6) 0.8759(4) 0.8811(3)
H16_5 H 0.857855 0.899813 0.776208
C34_5 C 0.8807(8) 0.9148(4) 0.8329(3)
C35_5 C 0.6731(6) 0.8759(4) 0.6189(3)
H17_5 H 0.724438 0.828881 0.639802
H18_5 H 0.642145 0.899813 0.723792
C36_5 C 0.6193(8) 0.9148(4) 0.6671(3)
C37_5 C 0.8671(7) 0.9075(3) 0.8726(3)
H19_5 H 0.816751 0.870597 0.908212
H20_5 H 0.910751 0.935302 0.826048
C38_5 C 0.6329(7) 0.9075(3) 0.6274(3)
H21_5 H 0.683249 0.870597 0.591788
H22_5 H 0.589249 0.935302 0.673952
C39_5 C 0.8969(7) 0.9312(3) 0.9044(3)
C40_5 C 0.6031(7) 0.9312(3) 0.5956(3)
C1_6 C 0.1031(7) 0.4312(3) 0.5956(3)
C2_6 C 0.1329(7) 0.4075(3) 0.6274(3)
C3_6 C 0.1731(6) 0.3759(4) 0.6189(3)
C4_6 C 0.1193(8) 0.4148(4) 0.6671(3)
C5_6 C 0.1991(6) 0.3516(3) 0.6472(3)
H1_6 H 0.183249 0.370597 0.591788
C6_6 C 0.1489(8) 0.3927(4) 0.6967(3)
H2_6 H 0.089249 0.435302 0.673952
C7_6 C 0.1886(6) 0.3602(3) 0.6873(3)
H3_6 H 0.224438 0.328881 0.639802
H4_6 H 0.142145 0.399813 0.723792
C8_6 C 0.2197(6) 0.3379(3) 0.7204(3)
C9_6 C 0.2161(6) 0.2941(4) 0.7223(3)
C10_6 C 0.250000 0.3569(4) 0.750000
C11_6 C 0.250000 0.2731(4) 0.750000
O7_6 O 0.1775(6) 0.2723(3) 0.6927(2)
H5_6 H 0.249999 0.385726 0.750001
H6_6 H 0.182820 0.282943 0.670182
C12_6 C 0.2803(6) 0.3379(3) 0.7796(3)
C13_6 C 0.250000 0.2269(4) 0.750000
C14_6 C 0.2839(6) 0.2941(4) 0.7777(3)
C15_6 C 0.3114(6) 0.3602(3) 0.8127(3)
C16_6 C 0.2161(6) 0.2059(4) 0.7777(3)
C17_6 C 0.2839(6) 0.2059(4) 0.7223(3)
O22_6 O 0.3225(6) 0.2723(3) 0.8073(2)
C18_6 C 0.3009(6) 0.3516(3) 0.8528(3)
C19_6 C 0.3511(8) 0.3927(4) 0.8033(3)
C20_6 C 0.2197(6) 0.1621(3) 0.7796(3)
O23_6 O 0.1775(6) 0.2277(3) 0.8073(2)
C21_6 C 0.2803(6) 0.1621(3) 0.7204(3)
O24_6 O 0.3225(6) 0.2277(3) 0.6927(2)
H7_6 H 0.317180 0.282943 0.829818
H8_6 H 0.275562 0.328881 0.860198
C22_6 C 0.3269(6) 0.3759(4) 0.8811(3)
C23_6 C 0.3807(8) 0.4148(4) 0.8329(3)
H9_6 H 0.357855 0.399813 0.776208
C24_6 C 0.1886(6) 0.1398(3) 0.8127(3)
C25_6 C 0.250000 0.1431(4) 0.750000
H10_6 H 0.182820 0.217057 0.829818
C26_6 C 0.3114(6) 0.1398(3) 0.6873(3)
H11_6 H 0.317180 0.217057 0.670182
C27_6 C 0.3671(7) 0.4075(3) 0.8726(3)
H12_6 H 0.316751 0.370597 0.908212
H13_6 H 0.410751 0.435302 0.826048
C28_6 C 0.1991(6) 0.1484(3) 0.8528(3)
C29_6 C 0.1489(8) 0.1073(4) 0.8033(3)
H14_6 H 0.249999 0.114274 0.749999
C30_6 C 0.3009(6) 0.1484(3) 0.6472(3)
C31_6 C 0.3511(8) 0.1073(4) 0.6967(3)
C32_6 C 0.3969(7) 0.4312(3) 0.9044(3)
H15_6 H 0.224438 0.171119 0.860198
C33_6 C 0.1731(6) 0.1241(4) 0.8811(3)
H16_6 H 0.142145 0.100187 0.776208
C34_6 C 0.1193(8) 0.0852(4) 0.8329(3)
C35_6 C 0.3269(6) 0.1241(4) 0.6189(3)
H17_6 H 0.275562 0.171119 0.639802
H18_6 H 0.357855 0.100187 0.723792
C36_6 C 0.3807(8) 0.0852(4) 0.6671(3)
C37_6 C 0.1329(7) 0.0925(3) 0.8726(3)
H19_6 H 0.183249 0.129403 0.908212
H20_6 H 0.089249 0.064698 0.826048
C38_6 C 0.3671(7) 0.0925(3) 0.6274(3)
H21_6 H 0.316751 0.129403 0.591788
H22_6 H 0.410751 0.064698 0.673952
C39_6 C 0.1031(7) 0.0688(3) 0.9044(3)
C40_6 C 0.3969(7) 0.0688(3) 0.5956(3)
C1_7 C 0.8969(7) 0.4312(3) 0.4044(3)
C2_7 C 0.8671(7) 0.4075(3) 0.3726(3)
C3_7 C 0.8269(6) 0.3759(4) 0.3811(3)
C4_7 C 0.8807(8) 0.4148(4) 0.3329(3)
C5_7 C 0.8009(6) 0.3516(3) 0.3528(3)
H1_7 H 0.816751 0.370597 0.408212
C6_7 C 0.8511(8) 0.3927(4) 0.3033(3)
H2_7 H 0.910751 0.435302 0.326048
C7_7 C 0.8114(6) 0.3602(3) 0.3127(3)
H3_7 H 0.775562 0.328881 0.360198
H4_7 H 0.857855 0.399813 0.276208
C8_7 C 0.7803(6) 0.3379(3) 0.2796(3)
C9_7 C 0.7839(6) 0.2941(4) 0.2777(3)
C10_7 C 0.750000 0.3569(4) 0.250000
C11_7 C 0.750000 0.2731(4) 0.250000
O7_7 O 0.8225(6) 0.2723(3) 0.3073(2)
H5_7 H 0.750001 0.385726 0.249999
H6_7 H 0.817180 0.282943 0.329818
C12_7 C 0.7197(6) 0.3379(3) 0.2204(3)
C13_7 C 0.750000 0.2269(4) 0.250000
C14_7 C 0.7161(6) 0.2941(4) 0.2223(3)
C15_7 C 0.6886(6) 0.3602(3) 0.1873(3)
C16_7 C 0.7839(6) 0.2059(4) 0.2223(3)
C17_7 C 0.7161(6) 0.2059(4) 0.2777(3)
O22_7 O 0.6775(6) 0.2723(3) 0.1927(2)
C18_7 C 0.6991(6) 0.3516(3) 0.1472(3)
C19_7 C 0.6489(8) 0.3927(4) 0.1967(3)
C20_7 C 0.7803(6) 0.1621(3) 0.2204(3)
O23_7 O 0.8225(6) 0.2277(3) 0.1927(2)
C21_7 C 0.7197(6) 0.1621(3) 0.2796(3)
O24_7 O 0.6775(6) 0.2277(3) 0.3073(2)
H7_7 H 0.682820 0.282943 0.170182
H8_7 H 0.724438 0.328881 0.139802
C22_7 C 0.6731(6) 0.3759(4) 0.1189(3)
C23_7 C 0.6193(8) 0.4148(4) 0.1671(3)
H9_7 H 0.642145 0.399813 0.223792
C24_7 C 0.8114(6) 0.1398(3) 0.1873(3)
C25_7 C 0.750000 0.1431(4) 0.250000
H10_7 H 0.817180 0.217057 0.170182
C26_7 C 0.6886(6) 0.1398(3) 0.3127(3)
H11_7 H 0.682820 0.217057 0.329818
C27_7 C 0.6329(7) 0.4075(3) 0.1274(3)
H12_7 H 0.683249 0.370597 0.091788
H13_7 H 0.589249 0.435302 0.173952
C28_7 C 0.8009(6) 0.1484(3) 0.1472(3)
C29_7 C 0.8511(8) 0.1073(4) 0.1967(3)
H14_7 H 0.750001 0.114274 0.250001
C30_7 C 0.6991(6) 0.1484(3) 0.3528(3)
C31_7 C 0.6489(8) 0.1073(4) 0.3033(3)
C32_7 C 0.6031(7) 0.4312(3) 0.0956(3)
H15_7 H 0.775562 0.171119 0.139802
C33_7 C 0.8269(6) 0.1241(4) 0.1189(3)
H16_7 H 0.857855 0.100187 0.223792
C34_7 C 0.8807(8) 0.0852(4) 0.1671(3)
C35_7 C 0.6731(6) 0.1241(4) 0.3811(3)
H17_7 H 0.724438 0.171119 0.360198
H18_7 H 0.642145 0.100187 0.276208
C36_7 C 0.6193(8) 0.0852(4) 0.3329(3)
C37_7 C 0.8671(7) 0.0925(3) 0.1274(3)
H19_7 H 0.816751 0.129403 0.091788
H20_7 H 0.910751 0.064698 0.173952
C38_7 C 0.6329(7) 0.0925(3) 0.3726(3)
H21_7 H 0.683249 0.129403 0.408212
H22_7 H 0.589249 0.064698 0.326048
C39_7 C 0.8969(7) 0.0688(3) 0.0956(3)
C40_7 C 0.6031(7) 0.0688(3) 0.4044(3)
C1_8 C 0.1031(7) 0.5688(3) 0.4044(3)
C2_8 C 0.1329(7) 0.5925(3) 0.3726(3)
C3_8 C 0.1731(6) 0.6241(4) 0.3811(3)
C4_8 C 0.1193(8) 0.5852(4) 0.3329(3)
C5_8 C 0.1991(6) 0.6484(3) 0.3528(3)
H1_8 H 0.183249 0.629403 0.408212
C6_8 C 0.1489(8) 0.6073(4) 0.3033(3)
H2_8 H 0.089249 0.564698 0.326048
C7_8 C 0.1886(6) 0.6398(3) 0.3127(3)
H3_8 H 0.224438 0.671119 0.360198
H4_8 H 0.142145 0.600187 0.276208
C8_8 C 0.2197(6) 0.6621(3) 0.2796(3)
C9_8 C 0.2161(6) 0.7059(4) 0.2777(3)
C10_8 C 0.250000 0.6431(4) 0.250000
C11_8 C 0.250000 0.7269(4) 0.250000
O7_8 O 0.1775(6) 0.7277(3) 0.3073(2)
H5_8 H 0.249999 0.614274 0.249999
H6_8 H 0.182820 0.717057 0.329818
C12_8 C 0.2803(6) 0.6621(3) 0.2204(3)
C13_8 C 0.250000 0.7731(4) 0.250000
C14_8 C 0.2839(6) 0.7059(4) 0.2223(3)
C15_8 C 0.3114(6) 0.6398(3) 0.1873(3)
C16_8 C 0.2161(6) 0.7941(4) 0.2223(3)
C17_8 C 0.2839(6) 0.7941(4) 0.2777(3)
O22_8 O 0.3225(6) 0.7277(3) 0.1927(2)
C18_8 C 0.3009(6) 0.6484(3) 0.1472(3)
C19_8 C 0.3511(8) 0.6073(4) 0.1967(3)
C20_8 C 0.2197(6) 0.8379(3) 0.2204(3)
O23_8 O 0.1775(6) 0.7723(3) 0.1927(2)
C21_8 C 0.2803(6) 0.8379(3) 0.2796(3)
O24_8 O 0.3225(6) 0.7723(3) 0.3073(2)
H7_8 H 0.317180 0.717057 0.170182
H8_8 H 0.275562 0.671119 0.139802
C22_8 C 0.3269(6) 0.6241(4) 0.1189(3)
C23_8 C 0.3807(8) 0.5852(4) 0.1671(3)
H9_8 H 0.357855 0.600187 0.223792
C24_8 C 0.1886(6) 0.8602(3) 0.1873(3)
C25_8 C 0.250000 0.8569(4) 0.250000
H10_8 H 0.182820 0.782943 0.170182
C26_8 C 0.3114(6) 0.8602(3) 0.3127(3)
H11_8 H 0.317180 0.782943 0.329818
C27_8 C 0.3671(7) 0.5925(3) 0.1274(3)
H12_8 H 0.316751 0.629403 0.091788
H13_8 H 0.410751 0.564698 0.173952
C28_8 C 0.1991(6) 0.8516(3) 0.1472(3)
C29_8 C 0.1489(8) 0.8927(4) 0.1967(3)
H14_8 H 0.249999 0.885726 0.250001
C30_8 C 0.3009(6) 0.8516(3) 0.3528(3)
C31_8 C 0.3511(8) 0.8927(4) 0.3033(3)
C32_8 C 0.3969(7) 0.5688(3) 0.0956(3)
H15_8 H 0.224438 0.828881 0.139802
C33_8 C 0.1731(6) 0.8759(4) 0.1189(3)
H16_8 H 0.142145 0.899813 0.223792
C34_8 C 0.1193(8) 0.9148(4) 0.1671(3)
C35_8 C 0.3269(6) 0.8759(4) 0.3811(3)
H17_8 H 0.275562 0.828881 0.360198
H18_8 H 0.357855 0.899813 0.276208
C36_8 C 0.3807(8) 0.9148(4) 0.3329(3)
C37_8 C 0.1329(7) 0.9075(3) 0.1274(3)
H19_8 H 0.183249 0.870597 0.091788
H20_8 H 0.089249 0.935302 0.173952
C38_8 C 0.3671(7) 0.9075(3) 0.3726(3)
H21_8 H 0.316751 0.870597 0.408212
H22_8 H 0.410751 0.935302 0.326048
C39_8 C 0.1031(7) 0.9312(3) 0.0956(3)
C40_8 C 0.3969(7) 0.9312(3) 0.4044(3)
H27_5 H 0.0812397 0.86905 0.0277728
H29_5 H 0.207193 0.973682 0.013841
H28_5 H 0.114655 0.867839 0.984205
H30_5 H 0.208587 0.948953 0.97214
H23_5 H 0.792807 0.0263176 0.013841
H25_5 H 0.91876 0.13095 0.0277728
H24_5 H 0.791413 0.0510473 0.97214
H26_5 H 0.885345 0.132161 0.984205
H28_6 H 0.114655 0.132161 0.0157949
H30_6 H 0.208587 0.0510473 0.0278599
H27_6 H 0.0812397 0.13095 0.972227
H29_6 H 0.207193 0.0263176 0.986159
H24_6 H 0.791413 0.948953 0.0278599
H26_6 H 0.885345 0.867839 0.0157949
H23_6 H 0.792807 0.973682 0.986159
H25_6 H 0.91876 0.86905 0.972227
H23_7 H 0.292807 0.526318 0.013841
H25_7 H 0.41876 0.63095 0.0277728
H27_7 H 0.58124 0.36905 0.0277728
H29_7 H 0.707193 0.473682 0.013841
H24_7 H 0.291413 0.551047 0.97214
H26_7 H 0.385345 0.632161 0.984205
H28_7 H 0.614655 0.367839 0.984205
H30_7 H 0.708587 0.448953 0.97214
H24_8 H 0.291413 0.448953 0.0278599
H26_8 H 0.385345 0.367839 0.0157949
H28_8 H 0.614655 0.632161 0.0157949
H30_8 H 0.708587 0.551047 0.0278599
H23_8 H 0.292807 0.473682 0.986159
H25_8 H 0.41876 0.36905 0.972227
H27_8 H 0.58124 0.63095 0.972227
H29_8 H 0.707193 0.526318 0.986159
loop_
_geom_bond_atom_site_label_1
_geom_bond_atom_site_label_2
_geom_bond_site_symmetry_1
_geom_bond_site_symmetry_2
Zr1 O1 1_555 1_555
O2 Zr1 1_555 1_555
O3 Zr1 1_555 1_555
C1 O3 1_555 1_555
O4 Zr3 1_555 1_555
O5 C1 1_555 1_555
O6 Zr3 1_555 1_555
C2 C1 1_555 1_555
C3 C2 1_555 1_555
C4 C2 1_555 1_555
C5 C3 1_555 1_555
H1 C3 1_555 1_555
C6 C4 1_555 1_555
H2 C4 1_555 1_555
C7 C5 1_555 1_555
H3 C5 1_555 1_555
H4 C6 1_555 1_555
C8 C7 1_555 1_555
C9 C8 1_555 1_555
C10 C8 1_555 1_555
C11 C9 1_555 1_555
O7 C9 1_555 1_555
H5 C10 1_555 1_555
H6 O7 1_555 1_555
O8 Zr1 1_555 1_555
O12 Zr1 1_555 1_555
Zr3 O1 1_555 1_555
Zr4 O2 1_555 1_555
O15 Zr3 1_555 1_555
O16 Zr3 1_555 1_555
O17 Zr4 1_555 1_555
C12 C10 1_555 1_555
C13 C11 1_555 1_555
C14 C11 1_555 1_555
C15 C12 1_555 1_555
C16 C13 1_555 1_555
C17 C13 1_555 1_555
O22 C14 1_555 1_555
C18 C15 1_555 1_555
C19 C15 1_555 1_555
C20 C16 1_555 1_555
O23 C16 1_555 1_555
C21 C17 1_555 1_555
O24 C17 1_555 1_555
H7 O22 1_555 1_555
H8 C18 1_555 1_555
C22 C18 1_555 1_555
C23 C19 1_555 1_555
H9 C19 1_555 1_555
C24 C20 1_555 1_555
C25 C20 1_555 1_555
H10 O23 1_555 1_555
C26 C21 1_555 1_555
H11 O24 1_555 1_555
C27 C22 1_555 1_555
H12 C22 1_555 1_555
H13 C23 1_555 1_555
C28 C24 1_555 1_555
C29 C24 1_555 1_555
H14 C25 1_555 1_555
C30 C26 1_555 1_555
C31 C26 1_555 1_555
C32 C27 1_555 1_555
H15 C28 1_555 1_555
C33 C28 1_555 1_555
H16 C29 1_555 1_555
C34 C29 1_555 1_555
C35 C30 1_555 1_555
H17 C30 1_555 1_555
H18 C31 1_555 1_555
C36 C31 1_555 1_555
O25 C32 1_555 1_555
O26 C32 1_555 1_555
C37 C33 1_555 1_555
H19 C33 1_555 1_555
H20 C34 1_555 1_555
C38 C35 1_555 1_555
H21 C35 1_555 1_555
H22 C36 1_555 1_555
Zr6 O25 1_555 1_555
Zr7 O26 1_555 1_555
C39 C37 1_555 1_555
C40 C38 1_555 1_555
O27 C39 1_555 1_555
O28 C39 1_555 1_555
O29 C40 1_555 1_555
O30 C40 1_555 1_555
Zr8 O27 1_555 1_555
Zr9 O28 1_555 1_555
Zr10 O29 1_555 1_555
Zr11 O30 1_555 1_555
O2 Zr3 1_555 1_555
O5 Zr3 1_555 1_555
C6 C7 1_555 1_555
O8 Zr4 1_555 1_555
Zr3 O13 1_555 1_555
Zr4 O15 1_555 1_555
C12 C14 1_555 1_555
C21 C25 1_555 1_555
C23 C27 1_555 1_555
C34 C37 1_555 1_555
C36 C38 1_555 1_555
Zr1_2 O1_2 1_555 1_555
O1_2 Zr2 1_555 1_555
Zr2 O9 1_555 1_555
O8_2 Zr1_2 1_555 1_555
O9 Zr1_2 1_555 1_555
O10 Zr1_2 1_555 1_555
O11 Zr1_2 1_555 1_555
Zr5 O8_2 1_555 1_555
O13_2 Zr2 1_555 1_555
O14 Zr2 1_555 1_555
O18 Zr5 1_555 1_555
O19 Zr5 1_555 1_555
O20 Zr5 1_555 1_555
O21 Zr5 1_555 1_555
O9 Zr5 1_555 1_555
Zr5 O14 1_555 1_555
Zr5 O17_2 1_555 1_555
C1_2 O10 1_555 1_555
O20 C1_2 1_555 1_555
C2_2 C1_2 1_555 1_555
C3_2 C2_2 1_555 1_555
C4_2 C2_2 1_555 1_555
C5_2 C3_2 1_555 1_555
H1_2 C3_2 1_555 1_555
C6_2 C4_2 1_555 1_555
H2_2 C4_2 1_555 1_555
C7_2 C5_2 1_555 1_555
H3_2 C5_2 1_555 1_555
H4_2 C6_2 1_555 1_555
C8_2 C7_2 1_555 1_555
C9_2 C8_2 1_555 1_555
C10_2 C8_2 1_555 1_555
C11_2 C9_2 1_555 1_555
O7_2 C9_2 1_555 1_555
H5_2 C10_2 1_555 1_555
H6_2 O7_2 1_555 1_555
C12_2 C10_2 1_555 1_555
C13_2 C11_2 1_555 1_555
C14_2 C11_2 1_555 1_555
C15_2 C12_2 1_555 1_555
C16_2 C13_2 1_555 1_555
C17_2 C13_2 1_555 1_555
O22_2 C14_2 1_555 1_555
C18_2 C15_2 1_555 1_555
C19_2 C15_2 1_555 1_555
C20_2 C16_2 1_555 1_555
O23_2 C16_2 1_555 1_555
C21_2 C17_2 1_555 1_555
O24_2 C17_2 1_555 1_555
H7_2 O22_2 1_555 1_555
H8_2 C18_2 1_555 1_555
C22_2 C18_2 1_555 1_555
C23_2 C19_2 1_555 1_555
H9_2 C19_2 1_555 1_555
C24_2 C20_2 1_555 1_555
C25_2 C20_2 1_555 1_555
H10_2 O23_2 1_555 1_555
C26_2 C21_2 1_555 1_555
H11_2 O24_2 1_555 1_555
C27_2 C22_2 1_555 1_555
H12_2 C22_2 1_555 1_555
H13_2 C23_2 1_555 1_555
C28_2 C24_2 1_555 1_555
C29_2 C24_2 1_555 1_555
H14_2 C25_2 1_555 1_555
C30_2 C26_2 1_555 1_555
C31_2 C26_2 1_555 1_555
C32_2 C27_2 1_555 1_555
H15_2 C28_2 1_555 1_555
C33_2 C28_2 1_555 1_555
H16_2 C29_2 1_555 1_555
C34_2 C29_2 1_555 1_555
C35_2 C30_2 1_555 1_555
H17_2 C30_2 1_555 1_555
H18_2 C31_2 1_555 1_555
C36_2 C31_2 1_555 1_555
O25_2 C32_2 1_555 1_555
O26_2 C32_2 1_555 1_555
C37_2 C33_2 1_555 1_555
H19_2 C33_2 1_555 1_555
H20_2 C34_2 1_555 1_555
C38_2 C35_2 1_555 1_555
H21_2 C35_2 1_555 1_555
H22_2 C36_2 1_555 1_555
Zr6_3 O25_2 1_555 1_555
Zr7 O26_2 1_555 1_555
C39_2 C37_2 1_555 1_555
C40_2 C38_2 1_555 1_555
O27_2 C39_2 1_555 1_555
O28_2 C39_2 1_555 1_555
O29_2 C40_2 1_555 1_555
O30_2 C40_2 1_555 1_555
Zr8_3 O27_2 1_555 1_555
Zr9_4 O28_2 1_555 1_555
Zr10_2 O29_2 1_555 1_555
Zr11_2 O30_2 1_555 1_555
C6_2 C7_2 1_555 1_555
C12_2 C14_2 1_555 1_555
C21_2 C25_2 1_555 1_555
C23_2 C27_2 1_555 1_555
C34_2 C37_2 1_555 1_555
C36_2 C38_2 1_555 1_555
Zr1_3 O17 1_555 1_555
O15 Zr1_3 1_555 1_555
O3_2 Zr1_3 1_555 1_555
C1_3 O3_2 1_555 1_555
O4_2 Zr4 1_555 1_555
O5_2 C1_3 1_555 1_555
O6_2 Zr4 1_555 1_555
C2_3 C1_3 1_555 1_555
C3_3 C2_3 1_555 1_555
C4_3 C2_3 1_555 1_555
C5_3 C3_3 1_555 1_555
H1_3 C3_3 1_555 1_555
C6_3 C4_3 1_555 1_555
H2_3 C4_3 1_555 1_555
C7_3 C5_3 1_555 1_555
H3_3 C5_3 1_555 1_555
H4_3 C6_3 1_555 1_555
C8_3 C7_3 1_555 1_555
C9_3 C8_3 1_555 1_555
C10_3 C8_3 1_555 1_555
C11_3 C9_3 1_555 1_555
O7_3 C9_3 1_555 1_555
H5_3 C10_3 1_555 1_555
H6_3 O7_3 1_555 1_555
O13 Zr1_3 1_555 1_555
O12_2 Zr1_3 1_555 1_555
O16_2 Zr4 1_555 1_555
C12_3 C10_3 1_555 1_555
C13_3 C11_3 1_555 1_555
C14_3 C11_3 1_555 1_555
C15_3 C12_3 1_555 1_555
C16_3 C13_3 1_555 1_555
C17_3 C13_3 1_555 1_555
O22_3 C14_3 1_555 1_555
C18_3 C15_3 1_555 1_555
C19_3 C15_3 1_555 1_555
C20_3 C16_3 1_555 1_555
O23_3 C16_3 1_555 1_555
C21_3 C17_3 1_555 1_555
O24_3 C17_3 1_555 1_555
H7_3 O22_3 1_555 1_555
H8_3 C18_3 1_555 1_555
C22_3 C18_3 1_555 1_555
C23_3 C19_3 1_555 1_555
H9_3 C19_3 1_555 1_555
C24_3 C20_3 1_555 1_555
C25_3 C20_3 1_555 1_555
H10_3 O23_3 1_555 1_555
C26_3 C21_3 1_555 1_555
H11_3 O24_3 1_555 1_555
C27_3 C22_3 1_555 1_555
H12_3 C22_3 1_555 1_555
H13_3 C23_3 1_555 1_555
C28_3 C24_3 1_555 1_555
C29_3 C24_3 1_555 1_555
H14_3 C25_3 1_555 1_555
C30_3 C26_3 1_555 1_555
C31_3 C26_3 1_555 1_555
C32_3 C27_3 1_555 1_555
H15_3 C28_3 1_555 1_555
C33_3 C28_3 1_555 1_555
H16_3 C29_3 1_555 1_555
C34_3 C29_3 1_555 1_555
C35_3 C30_3 1_555 1_555
H17_3 C30_3 1_555 1_555
H18_3 C31_3 1_555 1_555
C36_3 C31_3 1_555 1_555
O25_3 C32_3 1_555 1_555
O26_3 C32_3 1_555 1_555
C37_3 C33_3 1_555 1_555
H19_3 C33_3 1_555 1_555
H20_3 C34_3 1_555 1_555
C38_3 C35_3 1_555 1_555
H21_3 C35_3 1_555 1_555
H22_3 C36_3 1_555 1_555
Zr6_6 O25_3 1_555 1_555
Zr7_2 O26_3 1_555 1_555
C39_3 C37_3 1_555 1_555
C40_3 C38_3 1_555 1_555
O27_3 C39_3 1_555 1_555
O28_3 C39_3 1_555 1_555
O29_3 C40_3 1_555 1_555
O30_3 C40_3 1_555 1_555
Zr8_6 O27_3 1_555 1_555
Zr9_6 O28_3 1_555 1_555
Zr10_4 O29_3 1_555 1_555
Zr11_3 O30_3 1_555 1_555
O5_2 Zr4 1_555 1_555
C6_3 C7_3 1_555 1_555
C12_3 C14_3 1_555 1_555
C21_3 C25_3 1_555 1_555
C23_3 C27_3 1_555 1_555
C34_3 C37_3 1_555 1_555
C36_3 C38_3 1_555 1_555
Zr1_4 O17_2 1_555 1_555
O13_2 Zr1_4 1_555 1_555
O14 Zr1_4 1_555 1_555
O10_2 Zr1_4 1_555 1_555
O11_2 Zr1_4 1_555 1_555
O18_2 Zr2 1_555 1_555
O19_2 Zr2 1_555 1_555
O20_2 Zr2 1_555 1_555
O21_2 Zr2 1_555 1_555
C1_4 O10_2 1_555 1_555
O20_2 C1_4 1_555 1_555
C2_4 C1_4 1_555 1_555
C3_4 C2_4 1_555 1_555
C4_4 C2_4 1_555 1_555
C5_4 C3_4 1_555 1_555
H1_4 C3_4 1_555 1_555
C6_4 C4_4 1_555 1_555
H2_4 C4_4 1_555 1_555
C7_4 C5_4 1_555 1_555
H3_4 C5_4 1_555 1_555
H4_4 C6_4 1_555 1_555
C8_4 C7_4 1_555 1_555
C9_4 C8_4 1_555 1_555
C10_4 C8_4 1_555 1_555
C11_4 C9_4 1_555 1_555
O7_4 C9_4 1_555 1_555
H5_4 C10_4 1_555 1_555
H6_4 O7_4 1_555 1_555
C12_4 C10_4 1_555 1_555
C13_4 C11_4 1_555 1_555
C14_4 C11_4 1_555 1_555
C15_4 C12_4 1_555 1_555
C16_4 C13_4 1_555 1_555
C17_4 C13_4 1_555 1_555
O22_4 C14_4 1_555 1_555
C18_4 C15_4 1_555 1_555
C19_4 C15_4 1_555 1_555
C20_4 C16_4 1_555 1_555
O23_4 C16_4 1_555 1_555
C21_4 C17_4 1_555 1_555
O24_4 C17_4 1_555 1_555
H7_4 O22_4 1_555 1_555
H8_4 C18_4 1_555 1_555
C22_4 C18_4 1_555 1_555
C23_4 C19_4 1_555 1_555
H9_4 C19_4 1_555 1_555
C24_4 C20_4 1_555 1_555
C25_4 C20_4 1_555 1_555
H10_4 O23_4 1_555 1_555
C26_4 C21_4 1_555 1_555
H11_4 O24_4 1_555 1_555
C27_4 C22_4 1_555 1_555
H12_4 C22_4 1_555 1_555
H13_4 C23_4 1_555 1_555
C28_4 C24_4 1_555 1_555
C29_4 C24_4 1_555 1_555
H14_4 C25_4 1_555 1_555
C30_4 C26_4 1_555 1_555
C31_4 C26_4 1_555 1_555
C32_4 C27_4 1_555 1_555
H15_4 C28_4 1_555 1_555
C33_4 C28_4 1_555 1_555
H16_4 C29_4 1_555 1_555
C34_4 C29_4 1_555 1_555
C35_4 C30_4 1_555 1_555
H17_4 C30_4 1_555 1_555
H18_4 C31_4 1_555 1_555
C36_4 C31_4 1_555 1_555
O25_4 C32_4 1_555 1_555
O26_4 C32_4 1_555 1_555
C37_4 C33_4 1_555 1_555
H19_4 C33_4 1_555 1_555
H20_4 C34_4 1_555 1_555
C38_4 C35_4 1_555 1_555
H21_4 C35_4 1_555 1_555
H22_4 C36_4 1_555 1_555
Zr6_8 O25_4 1_555 1_555
Zr7_2 O26_4 1_555 1_555
C39_4 C37_4 1_555 1_555
C40_4 C38_4 1_555 1_555
O27_4 C39_4 1_555 1_555
O28_4 C39_4 1_555 1_555
O29_4 C40_4 1_555 1_555
O30_4 C40_4 1_555 1_555
Zr8_8 O27_4 1_555 1_555
Zr9_7 O28_4 1_555 1_555
Zr10_3 O29_4 1_555 1_555
Zr11_4 O30_4 1_555 1_555
C6_4 C7_4 1_555 1_555
C12_4 C14_4 1_555 1_555
C21_4 C25_4 1_555 1_555
C23_4 C27_4 1_555 1_555
C34_4 C37_4 1_555 1_555
C36_4 C38_4 1_555 1_555
O17_3 Zr8 1_555 1_555
Zr8 O15_2 1_555 1_555
O2_2 Zr9_5 1_555 1_555
O8_3 Zr9_5 1_555 1_555
O12_3 Zr9_5 1_555 1_555
Zr8_2 O2_2 1_555 1_555
O8_3 Zr8_2 1_555 1_555
O4_3 Zr8_5 1_555 1_555
O6_3 Zr8_5 1_555 1_555
O15_3 Zr8_5 1_555 1_555
O16_3 Zr8_5 1_555 1_555
Zr8_5 O13_3 1_555 1_555
O4_3 H24 1_555 1_555
O6_3 H26 1_555 1_555
Zr9_6 O1_3 1_555 1_555
O2_3 Zr9_6 1_555 1_555
O4_4 Zr8_6 1_555 1_555
O6_4 Zr8_6 1_555 1_555
Zr8_6 O1_3 1_555 1_555
O2_3 Zr8_6 1_555 1_555
O4_4 H23 1_555 1_555
O6_4 H25 1_555 1_555
O18_3 Zr8_7 1_555 1_555
O19_3 Zr8_7 1_555 1_555
O21_3 Zr8_7 1_555 1_555
Zr8_7 O14_2 1_555 1_555
Zr8_7 O17_4 1_555 1_555
O18_3 H28 1_555 1_555
O21_3 H30 1_555 1_555
O8_4 Zr9_7 1_555 1_555
O9_2 Zr9_7 1_555 1_555
Zr8_8 O8_4 1_555 1_555
O18_4 Zr8_8 1_555 1_555
O21_4 Zr8_8 1_555 1_555
O9_2 Zr8_8 1_555 1_555
O18_4 H27 1_555 1_555
O21_4 H29 1_555 1_555
O13_4 Zr8_3 1_555 1_555
O14_3 Zr8_3 1_555 1_555
Zr9_8 O1_4 1_555 1_555
O1_4 Zr8_4 1_555 1_555
Zr8_4 O9_3 1_555 1_555
O9_3 Zr9_8 1_555 1_555
O11_3 Zr9_8 1_555 1_555
Zr9 O17_3 1_555 1_555
O15_2 Zr9 1_555 1_555
O4_5 Zr8 1_555 1_555
O6_5 Zr8 1_555 1_555
O4_5 H23_2 1_555 1_555
O6_5 H25_2 1_555 1_555
O4_6 Zr8_2 1_555 1_555
O6_6 Zr8_2 1_555 1_555
O16_4 Zr8_2 1_555 1_555
O4_6 H24_2 1_555 1_555
O6_6 H26_2 1_555 1_555
O15_3 Zr9_2 1_555 1_555
O13_3 Zr9_2 1_555 1_555
O12_4 Zr9_2 1_555 1_555
Zr9_3 O17_4 1_555 1_555
O14_2 Zr9_3 1_555 1_555
O11_4 Zr9_3 1_555 1_555
O13_4 Zr9_4 1_555 1_555
O14_3 Zr9_4 1_555 1_555
O18_5 Zr8_3 1_555 1_555
O21_5 Zr8_3 1_555 1_555
O18_5 H27_2 1_555 1_555
O21_5 H29_2 1_555 1_555
O18_6 Zr8_4 1_555 1_555
O19_4 Zr8_4 1_555 1_555
O21_6 Zr8_4 1_555 1_555
O18_6 H28_2 1_555 1_555
O21_6 H30_2 1_555 1_555
O4_7 Zr6_7 1_555 1_555
O6_7 Zr6_7 1_555 1_555
O13_5 Zr6 1_555 1_555
O14_4 Zr6 1_555 1_555
O15_4 Zr6_7 1_555 1_555
O16_5 Zr6_7 1_555 1_555
O17_5 Zr6_3 1_555 1_555
O18_7 Zr6_5 1_555 1_555
O19_5 Zr6_5 1_555 1_555
O21_7 Zr6_5 1_555 1_555
Zr6_7 O13_5 1_555 1_555
Zr6_3 O15_4 1_555 1_555
Zr6_5 O14_4 1_555 1_555
Zr6_5 O17_5 1_555 1_555
O4_7 H24_3 1_555 1_555
O6_7 H26_3 1_555 1_555
O18_7 H28_3 1_555 1_555
O21_7 H30_3 1_555 1_555
Zr7_2 O1_5 1_555 1_555
O1_5 Zr6_2 1_555 1_555
O2_4 Zr7_2 1_555 1_555
Zr6_2 O9_4 1_555 1_555
O4_8 Zr6_8 1_555 1_555
O6_8 Zr6_8 1_555 1_555
O8_5 Zr7_2 1_555 1_555
O9_4 Zr7_2 1_555 1_555
O11_5 Zr7_2 1_555 1_555
O12_5 Zr7_2 1_555 1_555
Zr6_8 O1_5 1_555 1_555
Zr6_4 O2_4 1_555 1_555
Zr6_6 O8_5 1_555 1_555
O18_8 Zr6_6 1_555 1_555
O21_8 Zr6_6 1_555 1_555
O2_4 Zr6_8 1_555 1_555
O8_5 Zr6_4 1_555 1_555
O9_4 Zr6_6 1_555 1_555
O4_8 H23_3 1_555 1_555
O6_8 H25_3 1_555 1_555
O18_8 H27_3 1_555 1_555
O21_8 H29_3 1_555 1_555
Zr7 O17_5 1_555 1_555
O15_4 Zr7 1_555 1_555
O4_9 Zr6_3 1_555 1_555
O6_9 Zr6_3 1_555 1_555
O13_5 Zr7 1_555 1_555
O14_4 Zr7 1_555 1_555
O11_6 Zr7 1_555 1_555
O12_6 Zr7 1_555 1_555
O18_9 Zr6 1_555 1_555
O21_9 Zr6 1_555 1_555
O4_9 H23_4 1_555 1_555
O6_9 H25_4 1_555 1_555
O18_9 H27_4 1_555 1_555
O21_9 H29_4 1_555 1_555
O4_10 Zr6_4 1_555 1_555
O6_10 Zr6_4 1_555 1_555
O16_6 Zr6_4 1_555 1_555
O18_10 Zr6_2 1_555 1_555
O19_6 Zr6_2 1_555 1_555
O21_10 Zr6_2 1_555 1_555
O4_10 H24_4 1_555 1_555
O6_10 H26_4 1_555 1_555
O18_10 H28_4 1_555 1_555
O21_10 H30_4 1_555 1_555
O2_5 Zr10 1_555 1_555
O8_6 Zr10 1_555 1_555
O9_5 Zr10 1_555 1_555
O12_7 Zr10 1_555 1_555
Zr11_4 O2_5 1_555 1_555
Zr11 O8_6 1_555 1_555
O17_6 Zr11_4 1_555 1_555
O18_11 Zr11 1_555 1_555
O19_7 Zr11 1_555 1_555
O21_11 Zr11 1_555 1_555
O8_6 Zr11_4 1_555 1_555
O9_5 Zr11 1_555 1_555
Zr11_4 O15_5 1_555 1_555
Zr11 O14_5 1_555 1_555
Zr11 O17_6 1_555 1_555
Zr10_2 O1_6 1_555 1_555
O1_6 Zr11_3 1_555 1_555
O2_6 Zr10_2 1_555 1_555
Zr11_3 O9_6 1_555 1_555
O4_11 Zr11_2 1_555 1_555
O6_11 Zr11_2 1_555 1_555
O9_6 Zr10_2 1_555 1_555
O11_7 Zr10_2 1_555 1_555
Zr11_2 O1_6 1_555 1_555
O13_6 Zr11_3 1_555 1_555
O14_6 Zr11_3 1_555 1_555
O15_6 Zr11_2 1_555 1_555
O16_7 Zr11_2 1_555 1_555
O2_6 Zr11_2 1_555 1_555
Zr11_2 O13_6 1_555 1_555
Zr10_3 O17_6 1_555 1_555
O15_5 Zr10_3 1_555 1_555
O4_12 Zr11_4 1_555 1_555
O6_12 Zr11_4 1_555 1_555
O14_5 Zr10_3 1_555 1_555
O11_8 Zr10_3 1_555 1_555
O16_8 Zr11_4 1_555 1_555
O15_6 Zr10_4 1_555 1_555
O13_6 Zr10_4 1_555 1_555
O14_6 Zr10_4 1_555 1_555
O12_8 Zr10_4 1_555 1_555
O18_12 Zr11_3 1_555 1_555
O19_8 Zr11_3 1_555 1_555
O21_12 Zr11_3 1_555 1_555
C1_5 O11_2 1_555 1_555
O19 C1_5 1_555 1_555
C2_5 C1_5 1_555 1_555
C3_5 C2_5 1_555 1_555
C4_5 C2_5 1_555 1_555
C5_5 C3_5 1_555 1_555
H1_5 C3_5 1_555 1_555
C6_5 C4_5 1_555 1_555
H2_5 C4_5 1_555 1_555
C7_5 C5_5 1_555 1_555
H3_5 C5_5 1_555 1_555
H4_5 C6_5 1_555 1_555
C8_5 C7_5 1_555 1_555
C9_5 C8_5 1_555 1_555
C10_5 C8_5 1_555 1_555
C11_5 C9_5 1_555 1_555
O7_5 C9_5 1_555 1_555
H5_5 C10_5 1_555 1_555
H6_5 O7_5 1_555 1_555
C12_5 C10_5 1_555 1_555
C13_5 C11_5 1_555 1_555
C14_5 C11_5 1_555 1_555
C15_5 C12_5 1_555 1_555
C16_5 C13_5 1_555 1_555
C17_5 C13_5 1_555 1_555
O22_5 C14_5 1_555 1_555
C18_5 C15_5 1_555 1_555
C19_5 C15_5 1_555 1_555
C20_5 C16_5 1_555 1_555
O23_5 C16_5 1_555 1_555
C21_5 C17_5 1_555 1_555
O24_5 C17_5 1_555 1_555
H7_5 O22_5 1_555 1_555
H8_5 C18_5 1_555 1_555
C22_5 C18_5 1_555 1_555
C23_5 C19_5 1_555 1_555
H9_5 C19_5 1_555 1_555
C24_5 C20_5 1_555 1_555
C25_5 C20_5 1_555 1_555
H10_5 O23_5 1_555 1_555
C26_5 C21_5 1_555 1_555
H11_5 O24_5 1_555 1_555
C27_5 C22_5 1_555 1_555
H12_5 C22_5 1_555 1_555
H13_5 C23_5 1_555 1_555
C28_5 C24_5 1_555 1_555
C29_5 C24_5 1_555 1_555
H14_5 C25_5 1_555 1_555
C30_5 C26_5 1_555 1_555
C31_5 C26_5 1_555 1_555
C32_5 C27_5 1_555 1_555
H15_5 C28_5 1_555 1_555
C33_5 C28_5 1_555 1_555
H16_5 C29_5 1_555 1_555
C34_5 C29_5 1_555 1_555
C35_5 C30_5 1_555 1_555
H17_5 C30_5 1_555 1_555
H18_5 C31_5 1_555 1_555
C36_5 C31_5 1_555 1_555
O16_6 C32_5 1_555 1_555
O12_5 C32_5 1_555 1_555
C37_5 C33_5 1_555 1_555
H19_5 C33_5 1_555 1_555
H20_5 C34_5 1_555 1_555
C38_5 C35_5 1_555 1_555
H21_5 C35_5 1_555 1_555
H22_5 C36_5 1_555 1_555
C39_5 C37_5 1_555 1_555
C40_5 C38_5 1_555 1_555
O19_4 C39_5 1_555 1_555
O11_3 C39_5 1_555 1_555
O12_8 C40_5 1_555 1_555
O16_7 C40_5 1_555 1_555
C6_5 C7_5 1_555 1_555
C12_5 C14_5 1_555 1_555
C21_5 C25_5 1_555 1_555
C23_5 C27_5 1_555 1_555
C34_5 C37_5 1_555 1_555
C36_5 C38_5 1_555 1_555
C1_6 O12_2 1_555 1_555
O16 C1_6 1_555 1_555
C2_6 C1_6 1_555 1_555
C3_6 C2_6 1_555 1_555
C4_6 C2_6 1_555 1_555
C5_6 C3_6 1_555 1_555
H1_6 C3_6 1_555 1_555
C6_6 C4_6 1_555 1_555
H2_6 C4_6 1_555 1_555
C7_6 C5_6 1_555 1_555
H3_6 C5_6 1_555 1_555
H4_6 C6_6 1_555 1_555
C8_6 C7_6 1_555 1_555
C9_6 C8_6 1_555 1_555
C10_6 C8_6 1_555 1_555
C11_6 C9_6 1_555 1_555
O7_6 C9_6 1_555 1_555
H5_6 C10_6 1_555 1_555
H6_6 O7_6 1_555 1_555
C12_6 C10_6 1_555 1_555
C13_6 C11_6 1_555 1_555
C14_6 C11_6 1_555 1_555
C15_6 C12_6 1_555 1_555
C16_6 C13_6 1_555 1_555
C17_6 C13_6 1_555 1_555
O22_6 C14_6 1_555 1_555
C18_6 C15_6 1_555 1_555
C19_6 C15_6 1_555 1_555
C20_6 C16_6 1_555 1_555
O23_6 C16_6 1_555 1_555
C21_6 C17_6 1_555 1_555
O24_6 C17_6 1_555 1_555
H7_6 O22_6 1_555 1_555
H8_6 C18_6 1_555 1_555
C22_6 C18_6 1_555 1_555
C23_6 C19_6 1_555 1_555
H9_6 C19_6 1_555 1_555
C24_6 C20_6 1_555 1_555
C25_6 C20_6 1_555 1_555
H10_6 O23_6 1_555 1_555
C26_6 C21_6 1_555 1_555
H11_6 O24_6 1_555 1_555
C27_6 C22_6 1_555 1_555
H12_6 C22_6 1_555 1_555
H13_6 C23_6 1_555 1_555
C28_6 C24_6 1_555 1_555
C29_6 C24_6 1_555 1_555
H14_6 C25_6 1_555 1_555
C30_6 C26_6 1_555 1_555
C31_6 C26_6 1_555 1_555
C32_6 C27_6 1_555 1_555
H15_6 C28_6 1_555 1_555
C33_6 C28_6 1_555 1_555
H16_6 C29_6 1_555 1_555
C34_6 C29_6 1_555 1_555
C35_6 C30_6 1_555 1_555
H17_6 C30_6 1_555 1_555
H18_6 C31_6 1_555 1_555
C36_6 C31_6 1_555 1_555
O19_6 C32_6 1_555 1_555
O11_5 C32_6 1_555 1_555
C37_6 C33_6 1_555 1_555
H19_6 C33_6 1_555 1_555
H20_6 C34_6 1_555 1_555
C38_6 C35_6 1_555 1_555
H21_6 C35_6 1_555 1_555
H22_6 C36_6 1_555 1_555
C39_6 C37_6 1_555 1_555
C40_6 C38_6 1_555 1_555
O16_4 C39_6 1_555 1_555
O12_3 C39_6 1_555 1_555
O11_8 C40_6 1_555 1_555
O19_7 C40_6 1_555 1_555
C6_6 C7_6 1_555 1_555
C12_6 C14_6 1_555 1_555
C21_6 C25_6 1_555 1_555
C23_6 C27_6 1_555 1_555
C34_6 C37_6 1_555 1_555
C36_6 C38_6 1_555 1_555
C1_7 O11 1_555 1_555
O19_2 C1_7 1_555 1_555
C2_7 C1_7 1_555 1_555
C3_7 C2_7 1_555 1_555
C4_7 C2_7 1_555 1_555
C5_7 C3_7 1_555 1_555
H1_7 C3_7 1_555 1_555
C6_7 C4_7 1_555 1_555
H2_7 C4_7 1_555 1_555
C7_7 C5_7 1_555 1_555
H3_7 C5_7 1_555 1_555
H4_7 C6_7 1_555 1_555
C8_7 C7_7 1_555 1_555
C9_7 C8_7 1_555 1_555
C10_7 C8_7 1_555 1_555
C11_7 C9_7 1_555 1_555
O7_7 C9_7 1_555 1_555
H5_7 C10_7 1_555 1_555
H6_7 O7_7 1_555 1_555
C12_7 C10_7 1_555 1_555
C13_7 C11_7 1_555 1_555
C14_7 C11_7 1_555 1_555
C15_7 C12_7 1_555 1_555
C16_7 C13_7 1_555 1_555
C17_7 C13_7 1_555 1_555
O22_7 C14_7 1_555 1_555
C18_7 C15_7 1_555 1_555
C19_7 C15_7 1_555 1_555
C20_7 C16_7 1_555 1_555
O23_7 C16_7 1_555 1_555
C21_7 C17_7 1_555 1_555
O24_7 C17_7 1_555 1_555
H7_7 O22_7 1_555 1_555
H8_7 C18_7 1_555 1_555
C22_7 C18_7 1_555 1_555
C23_7 C19_7 1_555 1_555
H9_7 C19_7 1_555 1_555
C24_7 C20_7 1_555 1_555
C25_7 C20_7 1_555 1_555
H10_7 O23_7 1_555 1_555
C26_7 C21_7 1_555 1_555
H11_7 O24_7 1_555 1_555
C27_7 C22_7 1_555 1_555
H12_7 C22_7 1_555 1_555
H13_7 C23_7 1_555 1_555
C28_7 C24_7 1_555 1_555
C29_7 C24_7 1_555 1_555
H14_7 C25_7 1_555 1_555
C30_7 C26_7 1_555 1_555
C31_7 C26_7 1_555 1_555
C32_7 C27_7 1_555 1_555
H15_7 C28_7 1_555 1_555
C33_7 C28_7 1_555 1_555
H16_7 C29_7 1_555 1_555
C34_7 C29_7 1_555 1_555
C35_7 C30_7 1_555 1_555
H17_7 C30_7 1_555 1_555
H18_7 C31_7 1_555 1_555
C36_7 C31_7 1_555 1_555
O16_5 C32_7 1_555 1_555
O12_6 C32_7 1_555 1_555
C37_7 C33_7 1_555 1_555
H19_7 C33_7 1_555 1_555
H20_7 C34_7 1_555 1_555
C38_7 C35_7 1_555 1_555
H21_7 C35_7 1_555 1_555
H22_7 C36_7 1_555 1_555
C39_7 C37_7 1_555 1_555
C40_7 C38_7 1_555 1_555
O19_3 C39_7 1_555 1_555
O11_4 C39_7 1_555 1_555
O12_7 C40_7 1_555 1_555
O16_8 C40_7 1_555 1_555
C6_7 C7_7 1_555 1_555
C12_7 C14_7 1_555 1_555
C21_7 C25_7 1_555 1_555
C23_7 C27_7 1_555 1_555
C34_7 C37_7 1_555 1_555
C36_7 C38_7 1_555 1_555
C1_8 O12 1_555 1_555
O16_2 C1_8 1_555 1_555
C2_8 C1_8 1_555 1_555
C3_8 C2_8 1_555 1_555
C4_8 C2_8 1_555 1_555
C5_8 C3_8 1_555 1_555
H1_8 C3_8 1_555 1_555
C6_8 C4_8 1_555 1_555
H2_8 C4_8 1_555 1_555
C7_8 C5_8 1_555 1_555
H3_8 C5_8 1_555 1_555
H4_8 C6_8 1_555 1_555
C8_8 C7_8 1_555 1_555
C9_8 C8_8 1_555 1_555
C10_8 C8_8 1_555 1_555
C11_8 C9_8 1_555 1_555
O7_8 C9_8 1_555 1_555
H5_8 C10_8 1_555 1_555
H6_8 O7_8 1_555 1_555
C12_8 C10_8 1_555 1_555
C13_8 C11_8 1_555 1_555
C14_8 C11_8 1_555 1_555
C15_8 C12_8 1_555 1_555
C16_8 C13_8 1_555 1_555
C17_8 C13_8 1_555 1_555
O22_8 C14_8 1_555 1_555
C18_8 C15_8 1_555 1_555
C19_8 C15_8 1_555 1_555
C20_8 C16_8 1_555 1_555
O23_8 C16_8 1_555 1_555
C21_8 C17_8 1_555 1_555
O24_8 C17_8 1_555 1_555
H7_8 O22_8 1_555 1_555
H8_8 C18_8 1_555 1_555
C22_8 C18_8 1_555 1_555
C23_8 C19_8 1_555 1_555
H9_8 C19_8 1_555 1_555
C24_8 C20_8 1_555 1_555
C25_8 C20_8 1_555 1_555
H10_8 O23_8 1_555 1_555
C26_8 C21_8 1_555 1_555
H11_8 O24_8 1_555 1_555
C27_8 C22_8 1_555 1_555
H12_8 C22_8 1_555 1_555
H13_8 C23_8 1_555 1_555
C28_8 C24_8 1_555 1_555
C29_8 C24_8 1_555 1_555
H14_8 C25_8 1_555 1_555
C30_8 C26_8 1_555 1_555
C31_8 C26_8 1_555 1_555
C32_8 C27_8 1_555 1_555
H15_8 C28_8 1_555 1_555
C33_8 C28_8 1_555 1_555
H16_8 C29_8 1_555 1_555
C34_8 C29_8 1_555 1_555
C35_8 C30_8 1_555 1_555
H17_8 C30_8 1_555 1_555
H18_8 C31_8 1_555 1_555
C36_8 C31_8 1_555 1_555
O19_5 C32_8 1_555 1_555
O11_6 C32_8 1_555 1_555
C37_8 C33_8 1_555 1_555
H19_8 C33_8 1_555 1_555
H20_8 C34_8 1_555 1_555
C38_8 C35_8 1_555 1_555
H21_8 C35_8 1_555 1_555
H22_8 C36_8 1_555 1_555
C39_8 C37_8 1_555 1_555
C40_8 C38_8 1_555 1_555
O16_3 C39_8 1_555 1_555
O12_4 C39_8 1_555 1_555
O11_7 C40_8 1_555 1_555
O19_8 C40_8 1_555 1_555
C6_8 C7_8 1_555 1_555
C12_8 C14_8 1_555 1_555
C21_8 C25_8 1_555 1_555
C23_8 C27_8 1_555 1_555
C34_8 C37_8 1_555 1_555
C36_8 C38_8 1_555 1_555
O6_3 H27_5 1_555 1_555
O4_3 H29_5 1_555 1_555
O6_4 H28_5 1_555 1_555
O4_4 H30_5 1_555 1_555
O21_3 H23_5 1_555 1_555
O18_3 H25_5 1_555 1_555
O21_4 H24_5 1_555 1_555
O18_4 H26_5 1_555 1_555
O6_5 H28_6 1_555 1_555
O4_5 H30_6 1_555 1_555
O6_6 H27_6 1_555 1_555
O4_6 H29_6 1_555 1_555
O21_5 H24_6 1_555 1_555
O18_5 H26_6 1_555 1_555
O21_6 H23_6 1_555 1_555
O18_6 H25_6 1_555 1_555
O21_7 H23_7 1_555 1_555
O18_7 H25_7 1_555 1_555
O6_7 H27_7 1_555 1_555
O4_7 H29_7 1_555 1_555
O21_8 H24_7 1_555 1_555
O18_8 H26_7 1_555 1_555
O6_8 H28_7 1_555 1_555
O4_8 H30_7 1_555 1_555
O21_9 H24_8 1_555 1_555
O18_9 H26_8 1_555 1_555
O6_9 H28_8 1_555 1_555
O4_9 H30_8 1_555 1_555
O21_10 H23_8 1_555 1_555
O18_10 H25_8 1_555 1_555
O6_10 H27_8 1_555 1_555
O4_10 H29_8 1_555 1_555

#END
