
###############################################################################
#
# This file contains modified crystal structure data generated from the
# MOF subset of the Cambridge Structural Database (CSD) v543 
# hosted by the Cambridge Crystallographic Data Centre (CCDC).
#
# This work is licensed under the Creative Commons
# Attribution-NonCommercial-ShareAlike 4.0 International License.
# To view a copy of this license, visit
# http://creativecommons.org/licenses/by-nc-sa/4.0/
# or send a letter to
# Creative Commons, PO Box 1866, Mountain View, CA 94042, USA.
#
# CIF created using the CSD Python API on 29 September 2022
# The structure has been converted into the P1 space group
# The structure has a 3D framework
# The original CSD entry ZUKXOV02 is in the orthorhombic crystal system
# The framework has been calculated to contain at least 10.0% void space
# The void calculation uses a probe of radius 1.32A, grid spacing 0.4
# H atom positions have been added when not included in the experimental data
# Generated hydrogen atom positions removed from atoms on special positions
#
###############################################################################

data_ZUKXOV02
_chemical_formula_moiety         '(C448 H488 O192 Zr42)n'
_symmetry_cell_setting           triclinic
_symmetry_space_group_name_H-M   'P 1'
_symmetry_Int_Tables_number      1
_space_group_name_Hall           'P 1'
loop_
_symmetry_equiv_pos_site_id
_symmetry_equiv_pos_as_xyz
1 x,y,z
_cell_length_a                   20.500(4)
_cell_length_b                   35.660(7)
_cell_length_c                   43.190(9)
_cell_angle_alpha                90
_cell_angle_beta                 90
_cell_angle_gamma                90
_cell_volume                     31573.2
loop_
_atom_site_label
_atom_site_type_symbol
_atom_site_fract_x
_atom_site_fract_y
_atom_site_fract_z
Zr6 Zr 0.000000 0.000000 0.55641(3)
Zr5 Zr 0.000000 0.500000 0.94359(3)
Zr6_2 Zr 0.000000 1.000000 0.55641(3)
Zr4 Zr 0.500000 -0.000000 0.94359(3)
Zr6_3 Zr 1.000000 0.000000 0.55641(3)
Zr9 Zr 0.58662(8) 0.95052(3) 0.000000
Zr10 Zr 0.91338(8) 0.54948(3) 0.000000
Zr1 Zr 0.500000 0.500000 0.55641(3)
Zr2 Zr 0.41338(8) 0.45052(3) 0.500000
O1 O 0.5648(4) 0.53674(16) 0.58243(12)
O2 O 0.6199(5) 0.56966(19) 0.54649(13)
O3 O 0.4212(6) 0.3890(3) 0.500000
O4 O 0.4137(6) 0.500000 0.5274(2)
O5 O 0.500000 0.4486(3) 0.5281(2)
O6 O 0.3039(6) 0.4520(3) 0.500000
O7 O 0.6829(6) 0.7301(2) 0.70304(16)
H1 H 0.704786 0.730647 0.687154
C1 C 0.7171(6) 0.7099(2) 0.72621(18)
C2 C 0.750000 0.7298(3) 0.750000
C3 C 0.6812(6) 0.6330(3) 0.64579(19)
C4 C 0.6901(7) 0.6484(3) 0.70004(19)
C5 C 0.6004(7) 0.5623(3) 0.5748(2)
C6 C 0.7198(7) 0.6710(2) 0.72534(19)
C7 C 0.750000 0.6520(4) 0.750000
H2 H 0.750002 0.625940 0.750001
C8 C 0.6322(7) 0.5865(3) 0.59936(18)
C9 C 0.6399(7) 0.6029(3) 0.65322(19)
C10 C 0.7072(7) 0.6561(3) 0.66974(19)
H3 H 0.734983 0.675881 0.665091
C11 C 0.6979(7) 0.6394(3) 0.6147(2)
H4 H 0.724318 0.659724 0.609593
C12 C 0.6758(7) 0.6164(3) 0.5921(2)
H5 H 0.689169 0.620090 0.571777
C13 C 0.6134(7) 0.5799(3) 0.6292(2)
H6 H 0.584020 0.560890 0.633830
C14 C 0.6543(9) 0.6172(3) 0.7071(2)
H7 H 0.650120 0.610044 0.727722
C15 C 0.6239(10) 0.5960(3) 0.6843(2)
H8 H 0.593665 0.577604 0.689525
O8 O 0.5648(4) 0.96326(16) 0.91757(12)
O9 O 0.6199(5) 0.93034(19) 0.95351(13)
O10 O 0.6829(6) 0.7699(2) 0.79696(16)
H9 H 0.704786 0.769353 0.812846
C16 C 0.7171(6) 0.7901(2) 0.77379(18)
C17 C 0.750000 0.7702(3) 0.750000
C18 C 0.6812(6) 0.8670(3) 0.85421(19)
C19 C 0.6901(7) 0.8516(3) 0.79996(19)
C20 C 0.6004(7) 0.9377(3) 0.9252(2)
C21 C 0.7198(7) 0.8290(2) 0.77466(19)
C22 C 0.750000 0.8480(4) 0.750000
H10 H 0.750002 0.874060 0.749999
C23 C 0.6322(7) 0.9135(3) 0.90064(18)
C24 C 0.6399(7) 0.8971(3) 0.84678(19)
C25 C 0.7072(7) 0.8439(3) 0.83026(19)
H11 H 0.734983 0.824119 0.834909
C26 C 0.6979(7) 0.8606(3) 0.8853(2)
H12 H 0.724318 0.840276 0.890407
C27 C 0.6758(7) 0.8836(3) 0.9079(2)
H13 H 0.689169 0.879910 0.928223
C28 C 0.6134(7) 0.9201(3) 0.8708(2)
H14 H 0.584020 0.939110 0.866170
C29 C 0.6543(9) 0.8828(3) 0.7929(2)
H15 H 0.650120 0.889956 0.772278
C30 C 0.6239(10) 0.9040(3) 0.8157(2)
H16 H 0.593665 0.922396 0.810475
O11 O 0.9352(4) 0.53674(16) 0.91757(12)
O12 O 0.8801(5) 0.56966(19) 0.95351(13)
O13 O 0.8171(6) 0.7301(2) 0.79696(16)
H17 H 0.795214 0.730647 0.812846
C31 C 0.7829(6) 0.7099(2) 0.77379(18)
C32 C 0.8188(6) 0.6330(3) 0.85421(19)
C33 C 0.8099(7) 0.6484(3) 0.79996(19)
C34 C 0.8996(7) 0.5623(3) 0.9252(2)
C35 C 0.7802(7) 0.6710(2) 0.77466(19)
C36 C 0.8678(7) 0.5865(3) 0.90064(18)
C37 C 0.8601(7) 0.6029(3) 0.84678(19)
C38 C 0.7928(7) 0.6561(3) 0.83026(19)
H18 H 0.765017 0.675881 0.834909
C39 C 0.8021(7) 0.6394(3) 0.8853(2)
H19 H 0.775682 0.659724 0.890407
C40 C 0.8242(7) 0.6164(3) 0.9079(2)
H20 H 0.810831 0.620090 0.928223
C41 C 0.8866(7) 0.5799(3) 0.8708(2)
H21 H 0.915980 0.560890 0.866170
C42 C 0.8457(9) 0.6172(3) 0.7929(2)
H22 H 0.849880 0.610044 0.772278
C43 C 0.8761(10) 0.5960(3) 0.8157(2)
H23 H 0.906335 0.577604 0.810475
O14 O 0.9352(4) 0.96326(16) 0.58243(12)
O15 O 0.8801(5) 0.93034(19) 0.54649(13)
O16 O 0.8171(6) 0.7699(2) 0.70304(16)
H24 H 0.795214 0.769353 0.687154
C44 C 0.7829(6) 0.7901(2) 0.72621(18)
C45 C 0.8188(6) 0.8670(3) 0.64579(19)
C46 C 0.8099(7) 0.8516(3) 0.70004(19)
C47 C 0.8996(7) 0.9377(3) 0.5748(2)
C48 C 0.7802(7) 0.8290(2) 0.72534(19)
C49 C 0.8678(7) 0.9135(3) 0.59936(18)
C50 C 0.8601(7) 0.8971(3) 0.65322(19)
C51 C 0.7928(7) 0.8439(3) 0.66974(19)
H25 H 0.765017 0.824119 0.665091
C52 C 0.8021(7) 0.8606(3) 0.6147(2)
H26 H 0.775682 0.840276 0.609593
C53 C 0.8242(7) 0.8836(3) 0.5921(2)
H27 H 0.810831 0.879910 0.571777
C54 C 0.8866(7) 0.9201(3) 0.6292(2)
H28 H 0.915980 0.939110 0.633830
C55 C 0.8457(9) 0.8828(3) 0.7071(2)
H29 H 0.849880 0.889956 0.727722
C56 C 0.8761(10) 0.9040(3) 0.6843(2)
H30 H 0.906335 0.922396 0.689525
Zr3 Zr 0.58662(8) 0.54948(3) 0.500000
O17 O 0.5788(6) 0.6110(3) 0.500000
O18 O 0.5863(6) 0.500000 0.5274(2)
O19 O 0.500000 0.5514(3) 0.5281(2)
O20 O 0.6961(6) 0.5480(3) 0.500000
Zr4_2 Zr 0.500000 1.000000 0.94359(3)
Zr5_2 Zr 1.000000 0.500000 0.94359(3)
Zr6_4 Zr 1.000000 1.000000 0.55641(3)
Zr7 Zr 0.58662(8) 0.45052(3) 0.500000
Zr8 Zr 0.41338(8) 0.54948(3) 0.500000
Zr9_2 Zr 0.58662(8) 0.95052(3) 1.000000
Zr10_2 Zr 0.91338(8) 0.54948(3) 1.000000
Zr11 Zr 0.91338(8) 0.95052(3) 0.500000
O21 O 0.4352(4) 0.46326(16) 0.58243(12)
O22 O 0.5648(4) 0.46326(16) 0.58243(12)
O23 O 0.4352(4) 0.53674(16) 0.58243(12)
O24 O 0.3801(5) 0.43034(19) 0.54649(13)
O25 O 0.3801(5) 0.43034(19) 0.45351(13)
O26 O 0.6199(5) 0.56966(19) 0.45351(13)
O27 O 0.5863(6) 0.500000 0.4726(2)
O28 O 0.4137(6) 0.500000 0.4726(2)
O29 O 0.500000 0.4486(3) 0.4719(2)
O30 O 0.500000 0.5514(3) 0.4719(2)
Zr9_3 Zr 0.41338(8) 0.04948(3) 0.000000
Zr10_3 Zr 0.08662(8) 0.45052(3) 0.000000
O7_2 O 0.3171(6) 0.2699(2) 0.70304(16)
H1_2 H 0.295214 0.269353 0.687154
C1_2 C 0.2829(6) 0.2901(2) 0.72621(18)
C2_2 C 0.250000 0.2702(3) 0.750000
C3_2 C 0.3188(6) 0.3670(3) 0.64579(19)
C4_2 C 0.3099(7) 0.3516(3) 0.70004(19)
C5_2 C 0.3996(7) 0.4377(3) 0.5748(2)
C6_2 C 0.2802(7) 0.3290(2) 0.72534(19)
C7_2 C 0.250000 0.3480(4) 0.750000
H2_2 H 0.249998 0.374060 0.750001
C8_2 C 0.3678(7) 0.4135(3) 0.59936(18)
C9_2 C 0.3601(7) 0.3971(3) 0.65322(19)
C10_2 C 0.2928(7) 0.3439(3) 0.66974(19)
H3_2 H 0.265017 0.324119 0.665091
C11_2 C 0.3021(7) 0.3606(3) 0.6147(2)
H4_2 H 0.275682 0.340276 0.609593
C12_2 C 0.3242(7) 0.3836(3) 0.5921(2)
H5_2 H 0.310831 0.379910 0.571777
C13_2 C 0.3866(7) 0.4201(3) 0.6292(2)
H6_2 H 0.415980 0.439110 0.633830
C14_2 C 0.3457(9) 0.3828(3) 0.7071(2)
H7_2 H 0.349880 0.389956 0.727722
C15_2 C 0.3761(10) 0.4040(3) 0.6843(2)
H8_2 H 0.406335 0.422396 0.689525
O8_2 O 0.4352(4) 0.03674(16) 0.91757(12)
O9_2 O 0.3801(5) 0.06966(19) 0.95351(13)
O10_2 O 0.3171(6) 0.2301(2) 0.79696(16)
H9_2 H 0.295214 0.230647 0.812846
C16_2 C 0.2829(6) 0.2099(2) 0.77379(18)
C17_2 C 0.250000 0.2298(3) 0.750000
C18_2 C 0.3188(6) 0.1330(3) 0.85421(19)
C19_2 C 0.3099(7) 0.1484(3) 0.79996(19)
C20_2 C 0.3996(7) 0.0623(3) 0.9252(2)
C21_2 C 0.2802(7) 0.1710(2) 0.77466(19)
C22_2 C 0.250000 0.1520(4) 0.750000
H10_2 H 0.249998 0.125940 0.749999
C23_2 C 0.3678(7) 0.0865(3) 0.90064(18)
C24_2 C 0.3601(7) 0.1029(3) 0.84678(19)
C25_2 C 0.2928(7) 0.1561(3) 0.83026(19)
H11_2 H 0.265017 0.175881 0.834909
C26_2 C 0.3021(7) 0.1394(3) 0.8853(2)
H12_2 H 0.275682 0.159724 0.890407
C27_2 C 0.3242(7) 0.1164(3) 0.9079(2)
H13_2 H 0.310831 0.120090 0.928223
C28_2 C 0.3866(7) 0.0799(3) 0.8708(2)
H14_2 H 0.415980 0.060890 0.866170
C29_2 C 0.3457(9) 0.1172(3) 0.7929(2)
H15_2 H 0.349880 0.110044 0.772278
C30_2 C 0.3761(10) 0.0960(3) 0.8157(2)
H16_2 H 0.406335 0.077604 0.810475
O11_2 O 0.0648(4) 0.46326(16) 0.91757(12)
O12_2 O 0.1199(5) 0.43034(19) 0.95351(13)
O13_2 O 0.1829(6) 0.2699(2) 0.79696(16)
H17_2 H 0.204786 0.269353 0.812846
C31_2 C 0.2171(6) 0.2901(2) 0.77379(18)
C32_2 C 0.1812(6) 0.3670(3) 0.85421(19)
C33_2 C 0.1901(7) 0.3516(3) 0.79996(19)
C34_2 C 0.1004(7) 0.4377(3) 0.9252(2)
C35_2 C 0.2198(7) 0.3290(2) 0.77466(19)
C36_2 C 0.1322(7) 0.4135(3) 0.90064(18)
C37_2 C 0.1399(7) 0.3971(3) 0.84678(19)
C38_2 C 0.2072(7) 0.3439(3) 0.83026(19)
H18_2 H 0.234983 0.324119 0.834909
C39_2 C 0.1979(7) 0.3606(3) 0.8853(2)
H19_2 H 0.224318 0.340276 0.890407
C40_2 C 0.1758(7) 0.3836(3) 0.9079(2)
H20_2 H 0.189169 0.379910 0.928223
C41_2 C 0.1134(7) 0.4201(3) 0.8708(2)
H21_2 H 0.084020 0.439110 0.866170
C42_2 C 0.1543(9) 0.3828(3) 0.7929(2)
H22_2 H 0.150120 0.389956 0.772278
C43_2 C 0.1239(10) 0.4040(3) 0.8157(2)
H23_2 H 0.093665 0.422396 0.810475
O14_2 O 0.0648(4) 0.03674(16) 0.58243(12)
O15_2 O 0.1199(5) 0.06966(19) 0.54649(13)
O16_2 O 0.1829(6) 0.2301(2) 0.70304(16)
H24_2 H 0.204786 0.230647 0.687154
C44_2 C 0.2171(6) 0.2099(2) 0.72621(18)
C45_2 C 0.1812(6) 0.1330(3) 0.64579(19)
C46_2 C 0.1901(7) 0.1484(3) 0.70004(19)
C47_2 C 0.1004(7) 0.0623(3) 0.5748(2)
C48_2 C 0.2198(7) 0.1710(2) 0.72534(19)
C49_2 C 0.1322(7) 0.0865(3) 0.59936(18)
C50_2 C 0.1399(7) 0.1029(3) 0.65322(19)
C51_2 C 0.2072(7) 0.1561(3) 0.66974(19)
H25_2 H 0.234983 0.175881 0.665091
C52_2 C 0.1979(7) 0.1394(3) 0.6147(2)
H26_2 H 0.224318 0.159724 0.609593
C53_2 C 0.1758(7) 0.1164(3) 0.5921(2)
H27_2 H 0.189169 0.120090 0.571777
C54_2 C 0.1134(7) 0.0799(3) 0.6292(2)
H28_2 H 0.084020 0.060890 0.633830
C55_2 C 0.1543(9) 0.1172(3) 0.7071(2)
H29_2 H 0.150120 0.110044 0.727722
C56_2 C 0.1239(10) 0.0960(3) 0.6843(2)
H30_2 H 0.093665 0.077604 0.689525
Zr9_4 Zr 0.41338(8) 0.04948(3) 1.000000
Zr10_4 Zr 0.08662(8) 0.45052(3) 1.000000
Zr11_2 Zr 0.08662(8) 0.04948(3) 0.500000
Zr4_3 Zr 0.500000 -0.000000 0.05641(3)
Zr6_5 Zr -0.000000 0.000000 0.44359(3)
Zr1_2 Zr 0.500000 0.500000 0.44359(3)
O1_2 O 0.4352(4) 0.53674(16) 0.41757(12)
O2_2 O 0.3801(5) 0.56966(19) 0.45351(13)
O3_2 O 0.5788(6) 0.3890(3) 0.500000
O6_2 O 0.6961(6) 0.4520(3) 0.500000
O7_3 O 0.3171(6) 0.7301(2) 0.29696(16)
H1_3 H 0.295214 0.730647 0.312846
C1_3 C 0.2829(6) 0.7099(2) 0.27379(18)
C2_3 C 0.250000 0.7298(3) 0.250000
C3_3 C 0.3188(6) 0.6330(3) 0.35421(19)
C4_3 C 0.3099(7) 0.6484(3) 0.29996(19)
C5_3 C 0.3996(7) 0.5623(3) 0.4252(2)
C6_3 C 0.2802(7) 0.6710(2) 0.27466(19)
C7_3 C 0.250000 0.6520(4) 0.250000
H2_3 H 0.249998 0.625940 0.249999
C8_3 C 0.3678(7) 0.5865(3) 0.40064(18)
C9_3 C 0.3601(7) 0.6029(3) 0.34678(19)
C10_3 C 0.2928(7) 0.6561(3) 0.33026(19)
H3_3 H 0.265017 0.675881 0.334909
C11_3 C 0.3021(7) 0.6394(3) 0.3853(2)
H4_3 H 0.275682 0.659724 0.390407
C12_3 C 0.3242(7) 0.6164(3) 0.4079(2)
H5_3 H 0.310831 0.620090 0.428223
C13_3 C 0.3866(7) 0.5799(3) 0.3708(2)
H6_3 H 0.415980 0.560890 0.366170
C14_3 C 0.3457(9) 0.6172(3) 0.2929(2)
H7_3 H 0.349880 0.610044 0.272278
C15_3 C 0.3761(10) 0.5960(3) 0.3157(2)
H8_3 H 0.406335 0.577604 0.310475
O8_3 O 0.4352(4) 0.96326(16) 0.08243(12)
O9_3 O 0.3801(5) 0.93034(19) 0.04649(13)
O10_3 O 0.3171(6) 0.7699(2) 0.20304(16)
H9_3 H 0.295214 0.769353 0.187154
C16_3 C 0.2829(6) 0.7901(2) 0.22621(18)
C17_3 C 0.250000 0.7702(3) 0.250000
C18_3 C 0.3188(6) 0.8670(3) 0.14579(19)
C19_3 C 0.3099(7) 0.8516(3) 0.20004(19)
C20_3 C 0.3996(7) 0.9377(3) 0.0748(2)
C21_3 C 0.2802(7) 0.8290(2) 0.22534(19)
C22_3 C 0.250000 0.8480(4) 0.250000
H10_3 H 0.249998 0.874060 0.250001
C23_3 C 0.3678(7) 0.9135(3) 0.09936(18)
C24_3 C 0.3601(7) 0.8971(3) 0.15322(19)
C25_3 C 0.2928(7) 0.8439(3) 0.16974(19)
H11_3 H 0.265017 0.824119 0.165091
C26_3 C 0.3021(7) 0.8606(3) 0.1147(2)
H12_3 H 0.275682 0.840276 0.109593
C27_3 C 0.3242(7) 0.8836(3) 0.0921(2)
H13_3 H 0.310831 0.879910 0.071777
C28_3 C 0.3866(7) 0.9201(3) 0.1292(2)
H14_3 H 0.415980 0.939110 0.133830
C29_3 C 0.3457(9) 0.8828(3) 0.2071(2)
H15_3 H 0.349880 0.889956 0.227722
C30_3 C 0.3761(10) 0.9040(3) 0.1843(2)
H16_3 H 0.406335 0.922396 0.189525
O11_3 O 0.0648(4) 0.53674(16) 0.08243(12)
O12_3 O 0.1199(5) 0.56966(19) 0.04649(13)
O13_3 O 0.1829(6) 0.7301(2) 0.20304(16)
H17_3 H 0.204786 0.730647 0.187154
C31_3 C 0.2171(6) 0.7099(2) 0.22621(18)
C32_3 C 0.1812(6) 0.6330(3) 0.14579(19)
C33_3 C 0.1901(7) 0.6484(3) 0.20004(19)
C34_3 C 0.1004(7) 0.5623(3) 0.0748(2)
C35_3 C 0.2198(7) 0.6710(2) 0.22534(19)
C36_3 C 0.1322(7) 0.5865(3) 0.09936(18)
C37_3 C 0.1399(7) 0.6029(3) 0.15322(19)
C38_3 C 0.2072(7) 0.6561(3) 0.16974(19)
H18_3 H 0.234983 0.675881 0.165091
C39_3 C 0.1979(7) 0.6394(3) 0.1147(2)
H19_3 H 0.224318 0.659724 0.109593
C40_3 C 0.1758(7) 0.6164(3) 0.0921(2)
H20_3 H 0.189169 0.620090 0.071777
C41_3 C 0.1134(7) 0.5799(3) 0.1292(2)
H21_3 H 0.084020 0.560890 0.133830
C42_3 C 0.1543(9) 0.6172(3) 0.2071(2)
H22_3 H 0.150120 0.610044 0.227722
C43_3 C 0.1239(10) 0.5960(3) 0.1843(2)
H23_3 H 0.093665 0.577604 0.189525
O14_3 O 0.0648(4) 0.96326(16) 0.41757(12)
O15_3 O 0.1199(5) 0.93034(19) 0.45351(13)
O16_3 O 0.1829(6) 0.7699(2) 0.29696(16)
H24_3 H 0.204786 0.769353 0.312846
C44_3 C 0.2171(6) 0.7901(2) 0.27379(18)
C45_3 C 0.1812(6) 0.8670(3) 0.35421(19)
C46_3 C 0.1901(7) 0.8516(3) 0.29996(19)
C47_3 C 0.1004(7) 0.9377(3) 0.4252(2)
C48_3 C 0.2198(7) 0.8290(2) 0.27466(19)
C49_3 C 0.1322(7) 0.9135(3) 0.40064(18)
C50_3 C 0.1399(7) 0.8971(3) 0.34678(19)
C51_3 C 0.2072(7) 0.8439(3) 0.33026(19)
H25_3 H 0.234983 0.824119 0.334909
C52_3 C 0.1979(7) 0.8606(3) 0.3853(2)
H26_3 H 0.224318 0.840276 0.390407
C53_3 C 0.1758(7) 0.8836(3) 0.4079(2)
H27_3 H 0.189169 0.879910 0.428223
C54_3 C 0.1134(7) 0.9201(3) 0.3708(2)
H28_3 H 0.084020 0.939110 0.366170
C55_3 C 0.1543(9) 0.8828(3) 0.2929(2)
H29_3 H 0.150120 0.889956 0.272278
C56_3 C 0.1239(10) 0.9040(3) 0.3157(2)
H30_3 H 0.093665 0.922396 0.310475
O17_2 O 0.4212(6) 0.6110(3) 0.500000
O20_2 O 0.3039(6) 0.5480(3) 0.500000
Zr4_4 Zr 0.500000 1.000000 0.05641(3)
Zr5_3 Zr 0.000000 0.500000 0.05641(3)
Zr6_6 Zr -0.000000 1.000000 0.44359(3)
Zr9_5 Zr 0.41338(8) 0.95052(3) 0.000000
Zr10_5 Zr 0.08662(8) 0.54948(3) 0.000000
Zr11_3 Zr 0.08662(8) 0.95052(3) 0.500000
O21_2 O 0.5648(4) 0.46326(16) 0.41757(12)
O22_2 O 0.4352(4) 0.46326(16) 0.41757(12)
O23_2 O 0.5648(4) 0.53674(16) 0.41757(12)
O24_2 O 0.6199(5) 0.43034(19) 0.45351(13)
O25_2 O 0.6199(5) 0.43034(19) 0.54649(13)
O26_2 O 0.3801(5) 0.56966(19) 0.54649(13)
Zr9_6 Zr 0.41338(8) 0.95052(3) 1.000000
Zr10_6 Zr 0.08662(8) 0.54948(3) 1.000000
Zr6_7 Zr 1.000000 0.000000 0.44359(3)
Zr5_4 Zr 1.000000 0.500000 0.05641(3)
Zr6_8 Zr 1.000000 1.000000 0.44359(3)
O7_4 O 0.6829(6) 0.2699(2) 0.29696(16)
H1_4 H 0.704786 0.269353 0.312846
C1_4 C 0.7171(6) 0.2901(2) 0.27379(18)
C2_4 C 0.750000 0.2702(3) 0.250000
C3_4 C 0.6812(6) 0.3670(3) 0.35421(19)
C4_4 C 0.6901(7) 0.3516(3) 0.29996(19)
C5_4 C 0.6004(7) 0.4377(3) 0.4252(2)
C6_4 C 0.7198(7) 0.3290(2) 0.27466(19)
C7_4 C 0.750000 0.3480(4) 0.250000
H2_4 H 0.750002 0.374060 0.249999
C8_4 C 0.6322(7) 0.4135(3) 0.40064(18)
C9_4 C 0.6399(7) 0.3971(3) 0.34678(19)
C10_4 C 0.7072(7) 0.3439(3) 0.33026(19)
H3_4 H 0.734983 0.324119 0.334909
C11_4 C 0.6979(7) 0.3606(3) 0.3853(2)
H4_4 H 0.724318 0.340276 0.390407
C12_4 C 0.6758(7) 0.3836(3) 0.4079(2)
H5_4 H 0.689169 0.379910 0.428223
C13_4 C 0.6134(7) 0.4201(3) 0.3708(2)
H6_4 H 0.584020 0.439110 0.366170
C14_4 C 0.6543(9) 0.3828(3) 0.2929(2)
H7_4 H 0.650120 0.389956 0.272278
C15_4 C 0.6239(10) 0.4040(3) 0.3157(2)
H8_4 H 0.593665 0.422396 0.310475
O8_4 O 0.5648(4) 0.03674(16) 0.08243(12)
O9_4 O 0.6199(5) 0.06966(19) 0.04649(13)
O10_4 O 0.6829(6) 0.2301(2) 0.20304(16)
H9_4 H 0.704786 0.230647 0.187154
C16_4 C 0.7171(6) 0.2099(2) 0.22621(18)
C17_4 C 0.750000 0.2298(3) 0.250000
C18_4 C 0.6812(6) 0.1330(3) 0.14579(19)
C19_4 C 0.6901(7) 0.1484(3) 0.20004(19)
C20_4 C 0.6004(7) 0.0623(3) 0.0748(2)
C21_4 C 0.7198(7) 0.1710(2) 0.22534(19)
C22_4 C 0.750000 0.1520(4) 0.250000
H10_4 H 0.750002 0.125940 0.250001
C23_4 C 0.6322(7) 0.0865(3) 0.09936(18)
C24_4 C 0.6399(7) 0.1029(3) 0.15322(19)
C25_4 C 0.7072(7) 0.1561(3) 0.16974(19)
H11_4 H 0.734983 0.175881 0.165091
C26_4 C 0.6979(7) 0.1394(3) 0.1147(2)
H12_4 H 0.724318 0.159724 0.109593
C27_4 C 0.6758(7) 0.1164(3) 0.0921(2)
H13_4 H 0.689169 0.120090 0.071777
C28_4 C 0.6134(7) 0.0799(3) 0.1292(2)
H14_4 H 0.584020 0.060890 0.133830
C29_4 C 0.6543(9) 0.1172(3) 0.2071(2)
H15_4 H 0.650120 0.110044 0.227722
C30_4 C 0.6239(10) 0.0960(3) 0.1843(2)
H16_4 H 0.593665 0.077604 0.189525
O11_4 O 0.9352(4) 0.46326(16) 0.08243(12)
O12_4 O 0.8801(5) 0.43034(19) 0.04649(13)
O13_4 O 0.8171(6) 0.2699(2) 0.20304(16)
H17_4 H 0.795214 0.269353 0.187154
C31_4 C 0.7829(6) 0.2901(2) 0.22621(18)
C32_4 C 0.8188(6) 0.3670(3) 0.14579(19)
C33_4 C 0.8099(7) 0.3516(3) 0.20004(19)
C34_4 C 0.8996(7) 0.4377(3) 0.0748(2)
C35_4 C 0.7802(7) 0.3290(2) 0.22534(19)
C36_4 C 0.8678(7) 0.4135(3) 0.09936(18)
C37_4 C 0.8601(7) 0.3971(3) 0.15322(19)
C38_4 C 0.7928(7) 0.3439(3) 0.16974(19)
H18_4 H 0.765017 0.324119 0.165091
C39_4 C 0.8021(7) 0.3606(3) 0.1147(2)
H19_4 H 0.775682 0.340276 0.109593
C40_4 C 0.8242(7) 0.3836(3) 0.0921(2)
H20_4 H 0.810831 0.379910 0.071777
C41_4 C 0.8866(7) 0.4201(3) 0.1292(2)
H21_4 H 0.915980 0.439110 0.133830
C42_4 C 0.8457(9) 0.3828(3) 0.2071(2)
H22_4 H 0.849880 0.389956 0.227722
C43_4 C 0.8761(10) 0.4040(3) 0.1843(2)
H23_4 H 0.906335 0.422396 0.189525
O14_4 O 0.9352(4) 0.03674(16) 0.41757(12)
O15_4 O 0.8801(5) 0.06966(19) 0.45351(13)
O16_4 O 0.8171(6) 0.2301(2) 0.29696(16)
H24_4 H 0.795214 0.230647 0.312846
C44_4 C 0.7829(6) 0.2099(2) 0.27379(18)
C45_4 C 0.8188(6) 0.1330(3) 0.35421(19)
C46_4 C 0.8099(7) 0.1484(3) 0.29996(19)
C47_4 C 0.8996(7) 0.0623(3) 0.4252(2)
C48_4 C 0.7802(7) 0.1710(2) 0.27466(19)
C49_4 C 0.8678(7) 0.0865(3) 0.40064(18)
C50_4 C 0.8601(7) 0.1029(3) 0.34678(19)
C51_4 C 0.7928(7) 0.1561(3) 0.33026(19)
H25_4 H 0.765017 0.175881 0.334909
C52_4 C 0.8021(7) 0.1394(3) 0.3853(2)
H26_4 H 0.775682 0.159724 0.390407
C53_4 C 0.8242(7) 0.1164(3) 0.4079(2)
H27_4 H 0.810831 0.120090 0.428223
C54_4 C 0.8866(7) 0.0799(3) 0.3708(2)
H28_4 H 0.915980 0.060890 0.366170
C55_4 C 0.8457(9) 0.1172(3) 0.2929(2)
H29_4 H 0.849880 0.110044 0.272278
C56_4 C 0.8761(10) 0.0960(3) 0.3157(2)
H30_4 H 0.906335 0.077604 0.310475
Zr9_7 Zr 0.58662(8) 0.04948(3) 0.000000
Zr10_7 Zr 0.91338(8) 0.45052(3) 0.000000
Zr11_4 Zr 0.91338(8) 0.04948(3) 0.500000
Zr9_8 Zr 0.58662(8) 0.04948(3) 1.000000
Zr10_8 Zr 0.91338(8) 0.45052(3) 1.000000
O4_2 O 0.4137(6) -0.000000 0.0274(2)
O17_3 O 0.5788(6) 0.1110(3) 0.000000
O18_2 O 0.5863(6) -0.000000 0.0274(2)
O19_2 O 0.500000 0.0514(3) 0.0281(2)
O20_3 O 0.6961(6) 0.0480(3) 0.000000
O23_3 O 0.4352(4) 0.03674(16) 0.08243(12)
O17_4 O 0.5788(6) 0.1110(3) 1.000000
O20_4 O 0.6961(6) 0.0480(3) 1.000000
O26_3 O 0.6199(5) 0.06966(19) 0.95351(13)
O27_2 O 0.5863(6) -0.000000 0.9726(2)
O28_2 O 0.4137(6) -0.000000 0.9726(2)
O30_2 O 0.500000 0.0514(3) 0.9719(2)
O3_3 O 0.4212(6) 0.8890(3) 0.000000
O4_3 O 0.4137(6) 1.000000 0.0274(2)
O5_2 O 0.500000 0.9486(3) 0.0281(2)
O6_3 O 0.3039(6) 0.9520(3) 0.000000
O18_3 O 0.5863(6) 1.000000 0.0274(2)
O22_3 O 0.5648(4) 0.96326(16) 0.08243(12)
O3_4 O 0.4212(6) 0.8890(3) 1.000000
O6_4 O 0.3039(6) 0.9520(3) 1.000000
O25_3 O 0.3801(5) 0.93034(19) 0.95351(13)
O27_3 O 0.5863(6) 1.000000 0.9726(2)
O28_3 O 0.4137(6) 1.000000 0.9726(2)
O29_2 O 0.500000 0.9486(3) 0.9719(2)
O17_5 O 0.4212(6) 0.1110(3) 0.000000
O20_5 O 0.3039(6) 0.0480(3) 0.000000
O26_4 O 0.3801(5) 0.06966(19) 0.04649(13)
O17_6 O 0.4212(6) 0.1110(3) 1.000000
O20_6 O 0.3039(6) 0.0480(3) 1.000000
O23_4 O 0.5648(4) 0.03674(16) 0.91757(12)
O3_5 O 0.5788(6) 0.8890(3) 0.000000
O6_5 O 0.6961(6) 0.9520(3) 0.000000
O25_4 O 0.6199(5) 0.93034(19) 0.04649(13)
O3_6 O 0.5788(6) 0.8890(3) 1.000000
O6_6 O 0.6961(6) 0.9520(3) 1.000000
O22_4 O 0.4352(4) 0.96326(16) 0.91757(12)
O5_3 O 0.000000 0.4486(3) 0.0281(2)
O17_7 O 0.0788(6) 0.6110(3) 0.000000
O18_4 O 0.0863(6) 0.500000 0.0274(2)
O19_3 O 0.000000 0.5514(3) 0.0281(2)
O20_7 O 0.1961(6) 0.5480(3) 0.000000
O22_5 O 0.0648(4) 0.46326(16) 0.08243(12)
O17_8 O 0.0788(6) 0.6110(3) 1.000000
O20_8 O 0.1961(6) 0.5480(3) 1.000000
O26_5 O 0.1199(5) 0.56966(19) 0.95351(13)
O27_4 O 0.0863(6) 0.500000 0.9726(2)
O29_3 O 0.000000 0.4486(3) 0.9719(2)
O30_3 O -0.000000 0.5514(3) 0.9719(2)
O3_7 O 0.9212(6) 0.3890(3) 0.000000
O4_4 O 0.9137(6) 0.500000 0.0274(2)
O5_4 O 1.000000 0.4486(3) 0.0281(2)
O6_7 O 0.8039(6) 0.4520(3) 0.000000
O19_4 O 1.000000 0.5514(3) 0.0281(2)
O23_5 O 0.9352(4) 0.53674(16) 0.08243(12)
O3_8 O 0.9212(6) 0.3890(3) 1.000000
O6_8 O 0.8039(6) 0.4520(3) 1.000000
O25_5 O 0.8801(5) 0.43034(19) 0.95351(13)
O28_4 O 0.9137(6) 0.500000 0.9726(2)
O29_4 O 1.000000 0.4486(3) 0.9719(2)
O30_4 O 1.000000 0.5514(3) 0.9719(2)
O3_9 O 0.0788(6) 0.3890(3) 0.000000
O6_9 O 0.1961(6) 0.4520(3) 0.000000
O25_6 O 0.1199(5) 0.43034(19) 0.04649(13)
O3_10 O 0.0788(6) 0.3890(3) 1.000000
O6_10 O 0.1961(6) 0.4520(3) 1.000000
O23_6 O 0.0648(4) 0.53674(16) 0.91757(12)
O17_9 O 0.9212(6) 0.6110(3) 0.000000
O20_9 O 0.8039(6) 0.5480(3) 0.000000
O26_6 O 0.8801(5) 0.56966(19) 0.04649(13)
O17_10 O 0.9212(6) 0.6110(3) 1.000000
O20_10 O 0.8039(6) 0.5480(3) 1.000000
O22_6 O 0.9352(4) 0.46326(16) 0.91757(12)
O17_11 O 0.0788(6) 0.1110(3) 0.500000
O18_5 O 0.0863(6) -0.000000 0.5274(2)
O19_5 O 0.000000 0.0514(3) 0.5281(2)
O20_11 O 0.1961(6) 0.0480(3) 0.500000
O26_7 O 0.1199(5) 0.06966(19) 0.45351(13)
O27_5 O 0.0863(6) -0.000000 0.4726(2)
O30_5 O 0.000000 0.0514(3) 0.4719(2)
O5_5 O 0.000000 0.9486(3) 0.5281(2)
O18_6 O 0.0863(6) 1.000000 0.5274(2)
O22_7 O 0.0648(4) 0.96326(16) 0.58243(12)
O27_6 O 0.0863(6) 1.000000 0.4726(2)
O29_5 O 0.000000 0.9486(3) 0.4719(2)
O4_5 O 0.9137(6) -0.000000 0.5274(2)
O19_6 O 1.000000 0.0514(3) 0.5281(2)
O23_7 O 0.9352(4) 0.03674(16) 0.58243(12)
O28_5 O 0.9137(6) -0.000000 0.4726(2)
O30_6 O 1.000000 0.0514(3) 0.4719(2)
O3_11 O 0.9212(6) 0.8890(3) 0.500000
O4_6 O 0.9137(6) 1.000000 0.5274(2)
O5_6 O 1.000000 0.9486(3) 0.5281(2)
O6_11 O 0.8039(6) 0.9520(3) 0.500000
O25_7 O 0.8801(5) 0.93034(19) 0.45351(13)
O28_6 O 0.9137(6) 1.000000 0.4726(2)
O29_6 O 1.000000 0.9486(3) 0.4719(2)
O23_8 O 0.0648(4) 0.03674(16) 0.41757(12)
O3_12 O 0.0788(6) 0.8890(3) 0.500000
O6_12 O 0.1961(6) 0.9520(3) 0.500000
O25_8 O 0.1199(5) 0.93034(19) 0.54649(13)
O17_12 O 0.9212(6) 0.1110(3) 0.500000
O20_12 O 0.8039(6) 0.0480(3) 0.500000
O26_8 O 0.8801(5) 0.06966(19) 0.54649(13)
O22_8 O 0.9352(4) 0.96326(16) 0.41757(12)
O7_5 O 0.3171(6) 0.2699(2) 0.29696(16)
H1_5 H 0.295214 0.269353 0.312846
C1_5 C 0.2829(6) 0.2901(2) 0.27379(18)
C2_5 C 0.250000 0.2702(3) 0.250000
C3_5 C 0.3188(6) 0.3670(3) 0.35421(19)
C4_5 C 0.3099(7) 0.3516(3) 0.29996(19)
C5_5 C 0.3996(7) 0.4377(3) 0.4252(2)
C6_5 C 0.2802(7) 0.3290(2) 0.27466(19)
C7_5 C 0.250000 0.3480(4) 0.250000
H2_5 H 0.249998 0.374060 0.249999
C8_5 C 0.3678(7) 0.4135(3) 0.40064(18)
C9_5 C 0.3601(7) 0.3971(3) 0.34678(19)
C10_5 C 0.2928(7) 0.3439(3) 0.33026(19)
H3_5 H 0.265017 0.324119 0.334909
C11_5 C 0.3021(7) 0.3606(3) 0.3853(2)
H4_5 H 0.275682 0.340276 0.390407
C12_5 C 0.3242(7) 0.3836(3) 0.4079(2)
H5_5 H 0.310831 0.379910 0.428223
C13_5 C 0.3866(7) 0.4201(3) 0.3708(2)
H6_5 H 0.415980 0.439110 0.366170
C14_5 C 0.3457(9) 0.3828(3) 0.2929(2)
H7_5 H 0.349880 0.389956 0.272278
C15_5 C 0.3761(10) 0.4040(3) 0.3157(2)
H8_5 H 0.406335 0.422396 0.310475
O10_5 O 0.3171(6) 0.2301(2) 0.20304(16)
H9_5 H 0.295214 0.230647 0.187154
C16_5 C 0.2829(6) 0.2099(2) 0.22621(18)
C17_5 C 0.250000 0.2298(3) 0.250000
C18_5 C 0.3188(6) 0.1330(3) 0.14579(19)
C19_5 C 0.3099(7) 0.1484(3) 0.20004(19)
C20_5 C 0.3996(7) 0.0623(3) 0.0748(2)
C21_5 C 0.2802(7) 0.1710(2) 0.22534(19)
C22_5 C 0.250000 0.1520(4) 0.250000
H10_5 H 0.249998 0.125940 0.250001
C23_5 C 0.3678(7) 0.0865(3) 0.09936(18)
C24_5 C 0.3601(7) 0.1029(3) 0.15322(19)
C25_5 C 0.2928(7) 0.1561(3) 0.16974(19)
H11_5 H 0.265017 0.175881 0.165091
C26_5 C 0.3021(7) 0.1394(3) 0.1147(2)
H12_5 H 0.275682 0.159724 0.109593
C27_5 C 0.3242(7) 0.1164(3) 0.0921(2)
H13_5 H 0.310831 0.120090 0.071777
C28_5 C 0.3866(7) 0.0799(3) 0.1292(2)
H14_5 H 0.415980 0.060890 0.133830
C29_5 C 0.3457(9) 0.1172(3) 0.2071(2)
H15_5 H 0.349880 0.110044 0.227722
C30_5 C 0.3761(10) 0.0960(3) 0.1843(2)
H16_5 H 0.406335 0.077604 0.189525
O13_5 O 0.1829(6) 0.2699(2) 0.20304(16)
H17_5 H 0.204786 0.269353 0.187154
C31_5 C 0.2171(6) 0.2901(2) 0.22621(18)
C32_5 C 0.1812(6) 0.3670(3) 0.14579(19)
C33_5 C 0.1901(7) 0.3516(3) 0.20004(19)
C34_5 C 0.1004(7) 0.4377(3) 0.0748(2)
C35_5 C 0.2198(7) 0.3290(2) 0.22534(19)
C36_5 C 0.1322(7) 0.4135(3) 0.09936(18)
C37_5 C 0.1399(7) 0.3971(3) 0.15322(19)
C38_5 C 0.2072(7) 0.3439(3) 0.16974(19)
H18_5 H 0.234983 0.324119 0.165091
C39_5 C 0.1979(7) 0.3606(3) 0.1147(2)
H19_5 H 0.224318 0.340276 0.109593
C40_5 C 0.1758(7) 0.3836(3) 0.0921(2)
H20_5 H 0.189169 0.379910 0.071777
C41_5 C 0.1134(7) 0.4201(3) 0.1292(2)
H21_5 H 0.084020 0.439110 0.133830
C42_5 C 0.1543(9) 0.3828(3) 0.2071(2)
H22_5 H 0.150120 0.389956 0.227722
C43_5 C 0.1239(10) 0.4040(3) 0.1843(2)
H23_5 H 0.093665 0.422396 0.189525
O16_5 O 0.1829(6) 0.2301(2) 0.29696(16)
H24_5 H 0.204786 0.230647 0.312846
C44_5 C 0.2171(6) 0.2099(2) 0.27379(18)
C45_5 C 0.1812(6) 0.1330(3) 0.35421(19)
C46_5 C 0.1901(7) 0.1484(3) 0.29996(19)
C47_5 C 0.1004(7) 0.0623(3) 0.4252(2)
C48_5 C 0.2198(7) 0.1710(2) 0.27466(19)
C49_5 C 0.1322(7) 0.0865(3) 0.40064(18)
C50_5 C 0.1399(7) 0.1029(3) 0.34678(19)
C51_5 C 0.2072(7) 0.1561(3) 0.33026(19)
H25_5 H 0.234983 0.175881 0.334909
C52_5 C 0.1979(7) 0.1394(3) 0.3853(2)
H26_5 H 0.224318 0.159724 0.390407
C53_5 C 0.1758(7) 0.1164(3) 0.4079(2)
H27_5 H 0.189169 0.120090 0.428223
C54_5 C 0.1134(7) 0.0799(3) 0.3708(2)
H28_5 H 0.084020 0.060890 0.366170
C55_5 C 0.1543(9) 0.1172(3) 0.2929(2)
H29_5 H 0.150120 0.110044 0.272278
C56_5 C 0.1239(10) 0.0960(3) 0.3157(2)
H30_5 H 0.093665 0.077604 0.310475
O7_6 O 0.6829(6) 0.7301(2) 0.29696(16)
H1_6 H 0.704786 0.730647 0.312846
C1_6 C 0.7171(6) 0.7099(2) 0.27379(18)
C2_6 C 0.750000 0.7298(3) 0.250000
C3_6 C 0.6812(6) 0.6330(3) 0.35421(19)
C4_6 C 0.6901(7) 0.6484(3) 0.29996(19)
C5_6 C 0.6004(7) 0.5623(3) 0.4252(2)
C6_6 C 0.7198(7) 0.6710(2) 0.27466(19)
C7_6 C 0.750000 0.6520(4) 0.250000
H2_6 H 0.750002 0.625940 0.249999
C8_6 C 0.6322(7) 0.5865(3) 0.40064(18)
C9_6 C 0.6399(7) 0.6029(3) 0.34678(19)
C10_6 C 0.7072(7) 0.6561(3) 0.33026(19)
H3_6 H 0.734983 0.675881 0.334909
C11_6 C 0.6979(7) 0.6394(3) 0.3853(2)
H4_6 H 0.724318 0.659724 0.390407
C12_6 C 0.6758(7) 0.6164(3) 0.4079(2)
H5_6 H 0.689169 0.620090 0.428223
C13_6 C 0.6134(7) 0.5799(3) 0.3708(2)
H6_6 H 0.584020 0.560890 0.366170
C14_6 C 0.6543(9) 0.6172(3) 0.2929(2)
H7_6 H 0.650120 0.610044 0.272278
C15_6 C 0.6239(10) 0.5960(3) 0.3157(2)
H8_6 H 0.593665 0.577604 0.310475
O10_6 O 0.6829(6) 0.7699(2) 0.20304(16)
H9_6 H 0.704786 0.769353 0.187154
C16_6 C 0.7171(6) 0.7901(2) 0.22621(18)
C17_6 C 0.750000 0.7702(3) 0.250000
C18_6 C 0.6812(6) 0.8670(3) 0.14579(19)
C19_6 C 0.6901(7) 0.8516(3) 0.20004(19)
C20_6 C 0.6004(7) 0.9377(3) 0.0748(2)
C21_6 C 0.7198(7) 0.8290(2) 0.22534(19)
C22_6 C 0.750000 0.8480(4) 0.250000
H10_6 H 0.750002 0.874060 0.250001
C23_6 C 0.6322(7) 0.9135(3) 0.09936(18)
C24_6 C 0.6399(7) 0.8971(3) 0.15322(19)
C25_6 C 0.7072(7) 0.8439(3) 0.16974(19)
H11_6 H 0.734983 0.824119 0.165091
C26_6 C 0.6979(7) 0.8606(3) 0.1147(2)
H12_6 H 0.724318 0.840276 0.109593
C27_6 C 0.6758(7) 0.8836(3) 0.0921(2)
H13_6 H 0.689169 0.879910 0.071777
C28_6 C 0.6134(7) 0.9201(3) 0.1292(2)
H14_6 H 0.584020 0.939110 0.133830
C29_6 C 0.6543(9) 0.8828(3) 0.2071(2)
H15_6 H 0.650120 0.889956 0.227722
C30_6 C 0.6239(10) 0.9040(3) 0.1843(2)
H16_6 H 0.593665 0.922396 0.189525
O13_6 O 0.8171(6) 0.7301(2) 0.20304(16)
H17_6 H 0.795214 0.730647 0.187154
C31_6 C 0.7829(6) 0.7099(2) 0.22621(18)
C32_6 C 0.8188(6) 0.6330(3) 0.14579(19)
C33_6 C 0.8099(7) 0.6484(3) 0.20004(19)
C34_6 C 0.8996(7) 0.5623(3) 0.0748(2)
C35_6 C 0.7802(7) 0.6710(2) 0.22534(19)
C36_6 C 0.8678(7) 0.5865(3) 0.09936(18)
C37_6 C 0.8601(7) 0.6029(3) 0.15322(19)
C38_6 C 0.7928(7) 0.6561(3) 0.16974(19)
H18_6 H 0.765017 0.675881 0.165091
C39_6 C 0.8021(7) 0.6394(3) 0.1147(2)
H19_6 H 0.775682 0.659724 0.109593
C40_6 C 0.8242(7) 0.6164(3) 0.0921(2)
H20_6 H 0.810831 0.620090 0.071777
C41_6 C 0.8866(7) 0.5799(3) 0.1292(2)
H21_6 H 0.915980 0.560890 0.133830
C42_6 C 0.8457(9) 0.6172(3) 0.2071(2)
H22_6 H 0.849880 0.610044 0.227722
C43_6 C 0.8761(10) 0.5960(3) 0.1843(2)
H23_6 H 0.906335 0.577604 0.189525
O16_6 O 0.8171(6) 0.7699(2) 0.29696(16)
H24_6 H 0.795214 0.769353 0.312846
C44_6 C 0.7829(6) 0.7901(2) 0.27379(18)
C45_6 C 0.8188(6) 0.8670(3) 0.35421(19)
C46_6 C 0.8099(7) 0.8516(3) 0.29996(19)
C47_6 C 0.8996(7) 0.9377(3) 0.4252(2)
C48_6 C 0.7802(7) 0.8290(2) 0.27466(19)
C49_6 C 0.8678(7) 0.9135(3) 0.40064(18)
C50_6 C 0.8601(7) 0.8971(3) 0.34678(19)
C51_6 C 0.7928(7) 0.8439(3) 0.33026(19)
H25_6 H 0.765017 0.824119 0.334909
C52_6 C 0.8021(7) 0.8606(3) 0.3853(2)
H26_6 H 0.775682 0.840276 0.390407
C53_6 C 0.8242(7) 0.8836(3) 0.4079(2)
H27_6 H 0.810831 0.879910 0.428223
C54_6 C 0.8866(7) 0.9201(3) 0.3708(2)
H28_6 H 0.915980 0.939110 0.366170
C55_6 C 0.8457(9) 0.8828(3) 0.2929(2)
H29_6 H 0.849880 0.889956 0.272278
C56_6 C 0.8761(10) 0.9040(3) 0.3157(2)
H30_6 H 0.906335 0.922396 0.310475
O7_7 O 0.6829(6) 0.2699(2) 0.70304(16)
H1_7 H 0.704786 0.269353 0.687154
C1_7 C 0.7171(6) 0.2901(2) 0.72621(18)
C2_7 C 0.750000 0.2702(3) 0.750000
C3_7 C 0.6812(6) 0.3670(3) 0.64579(19)
C4_7 C 0.6901(7) 0.3516(3) 0.70004(19)
C5_7 C 0.6004(7) 0.4377(3) 0.5748(2)
C6_7 C 0.7198(7) 0.3290(2) 0.72534(19)
C7_7 C 0.750000 0.3480(4) 0.750000
H2_7 H 0.750002 0.374060 0.750001
C8_7 C 0.6322(7) 0.4135(3) 0.59936(18)
C9_7 C 0.6399(7) 0.3971(3) 0.65322(19)
C10_7 C 0.7072(7) 0.3439(3) 0.66974(19)
H3_7 H 0.734983 0.324119 0.665091
C11_7 C 0.6979(7) 0.3606(3) 0.6147(2)
H4_7 H 0.724318 0.340276 0.609593
C12_7 C 0.6758(7) 0.3836(3) 0.5921(2)
H5_7 H 0.689169 0.379910 0.571777
C13_7 C 0.6134(7) 0.4201(3) 0.6292(2)
H6_7 H 0.584020 0.439110 0.633830
C14_7 C 0.6543(9) 0.3828(3) 0.7071(2)
H7_7 H 0.650120 0.389956 0.727722
C15_7 C 0.6239(10) 0.4040(3) 0.6843(2)
H8_7 H 0.593665 0.422396 0.689525
O10_7 O 0.6829(6) 0.2301(2) 0.79696(16)
H9_7 H 0.704786 0.230647 0.812846
C16_7 C 0.7171(6) 0.2099(2) 0.77379(18)
C17_7 C 0.750000 0.2298(3) 0.750000
C18_7 C 0.6812(6) 0.1330(3) 0.85421(19)
C19_7 C 0.6901(7) 0.1484(3) 0.79996(19)
C20_7 C 0.6004(7) 0.0623(3) 0.9252(2)
C21_7 C 0.7198(7) 0.1710(2) 0.77466(19)
C22_7 C 0.750000 0.1520(4) 0.750000
H10_7 H 0.750002 0.125940 0.749999
C23_7 C 0.6322(7) 0.0865(3) 0.90064(18)
C24_7 C 0.6399(7) 0.1029(3) 0.84678(19)
C25_7 C 0.7072(7) 0.1561(3) 0.83026(19)
H11_7 H 0.734983 0.175881 0.834909
C26_7 C 0.6979(7) 0.1394(3) 0.8853(2)
H12_7 H 0.724318 0.159724 0.890407
C27_7 C 0.6758(7) 0.1164(3) 0.9079(2)
H13_7 H 0.689169 0.120090 0.928223
C28_7 C 0.6134(7) 0.0799(3) 0.8708(2)
H14_7 H 0.584020 0.060890 0.866170
C29_7 C 0.6543(9) 0.1172(3) 0.7929(2)
H15_7 H 0.650120 0.110044 0.772278
C30_7 C 0.6239(10) 0.0960(3) 0.8157(2)
H16_7 H 0.593665 0.077604 0.810475
O13_7 O 0.8171(6) 0.2699(2) 0.79696(16)
H17_7 H 0.795214 0.269353 0.812846
C31_7 C 0.7829(6) 0.2901(2) 0.77379(18)
C32_7 C 0.8188(6) 0.3670(3) 0.85421(19)
C33_7 C 0.8099(7) 0.3516(3) 0.79996(19)
C34_7 C 0.8996(7) 0.4377(3) 0.9252(2)
C35_7 C 0.7802(7) 0.3290(2) 0.77466(19)
C36_7 C 0.8678(7) 0.4135(3) 0.90064(18)
C37_7 C 0.8601(7) 0.3971(3) 0.84678(19)
C38_7 C 0.7928(7) 0.3439(3) 0.83026(19)
H18_7 H 0.765017 0.324119 0.834909
C39_7 C 0.8021(7) 0.3606(3) 0.8853(2)
H19_7 H 0.775682 0.340276 0.890407
C40_7 C 0.8242(7) 0.3836(3) 0.9079(2)
H20_7 H 0.810831 0.379910 0.928223
C41_7 C 0.8866(7) 0.4201(3) 0.8708(2)
H21_7 H 0.915980 0.439110 0.866170
C42_7 C 0.8457(9) 0.3828(3) 0.7929(2)
H22_7 H 0.849880 0.389956 0.772278
C43_7 C 0.8761(10) 0.4040(3) 0.8157(2)
H23_7 H 0.906335 0.422396 0.810475
O16_7 O 0.8171(6) 0.2301(2) 0.70304(16)
H24_7 H 0.795214 0.230647 0.687154
C44_7 C 0.7829(6) 0.2099(2) 0.72621(18)
C45_7 C 0.8188(6) 0.1330(3) 0.64579(19)
C46_7 C 0.8099(7) 0.1484(3) 0.70004(19)
C47_7 C 0.8996(7) 0.0623(3) 0.5748(2)
C48_7 C 0.7802(7) 0.1710(2) 0.72534(19)
C49_7 C 0.8678(7) 0.0865(3) 0.59936(18)
C50_7 C 0.8601(7) 0.1029(3) 0.65322(19)
C51_7 C 0.7928(7) 0.1561(3) 0.66974(19)
H25_7 H 0.765017 0.175881 0.665091
C52_7 C 0.8021(7) 0.1394(3) 0.6147(2)
H26_7 H 0.775682 0.159724 0.609593
C53_7 C 0.8242(7) 0.1164(3) 0.5921(2)
H27_7 H 0.810831 0.120090 0.571777
C54_7 C 0.8866(7) 0.0799(3) 0.6292(2)
H28_7 H 0.915980 0.060890 0.633830
C55_7 C 0.8457(9) 0.1172(3) 0.7071(2)
H29_7 H 0.849880 0.110044 0.727722
C56_7 C 0.8761(10) 0.0960(3) 0.6843(2)
H30_7 H 0.906335 0.077604 0.689525
O7_8 O 0.3171(6) 0.7301(2) 0.70304(16)
H1_8 H 0.295214 0.730647 0.687154
C1_8 C 0.2829(6) 0.7099(2) 0.72621(18)
C2_8 C 0.250000 0.7298(3) 0.750000
C3_8 C 0.3188(6) 0.6330(3) 0.64579(19)
C4_8 C 0.3099(7) 0.6484(3) 0.70004(19)
C5_8 C 0.3996(7) 0.5623(3) 0.5748(2)
C6_8 C 0.2802(7) 0.6710(2) 0.72534(19)
C7_8 C 0.250000 0.6520(4) 0.750000
H2_8 H 0.249998 0.625940 0.750001
C8_8 C 0.3678(7) 0.5865(3) 0.59936(18)
C9_8 C 0.3601(7) 0.6029(3) 0.65322(19)
C10_8 C 0.2928(7) 0.6561(3) 0.66974(19)
H3_8 H 0.265017 0.675881 0.665091
C11_8 C 0.3021(7) 0.6394(3) 0.6147(2)
H4_8 H 0.275682 0.659724 0.609593
C12_8 C 0.3242(7) 0.6164(3) 0.5921(2)
H5_8 H 0.310831 0.620090 0.571777
C13_8 C 0.3866(7) 0.5799(3) 0.6292(2)
H6_8 H 0.415980 0.560890 0.633830
C14_8 C 0.3457(9) 0.6172(3) 0.7071(2)
H7_8 H 0.349880 0.610044 0.727722
C15_8 C 0.3761(10) 0.5960(3) 0.6843(2)
H8_8 H 0.406335 0.577604 0.689525
O10_8 O 0.3171(6) 0.7699(2) 0.79696(16)
H9_8 H 0.295214 0.769353 0.812846
C16_8 C 0.2829(6) 0.7901(2) 0.77379(18)
C17_8 C 0.250000 0.7702(3) 0.750000
C18_8 C 0.3188(6) 0.8670(3) 0.85421(19)
C19_8 C 0.3099(7) 0.8516(3) 0.79996(19)
C20_8 C 0.3996(7) 0.9377(3) 0.9252(2)
C21_8 C 0.2802(7) 0.8290(2) 0.77466(19)
C22_8 C 0.250000 0.8480(4) 0.750000
H10_8 H 0.249998 0.874060 0.749999
C23_8 C 0.3678(7) 0.9135(3) 0.90064(18)
C24_8 C 0.3601(7) 0.8971(3) 0.84678(19)
C25_8 C 0.2928(7) 0.8439(3) 0.83026(19)
H11_8 H 0.265017 0.824119 0.834909
C26_8 C 0.3021(7) 0.8606(3) 0.8853(2)
H12_8 H 0.275682 0.840276 0.890407
C27_8 C 0.3242(7) 0.8836(3) 0.9079(2)
H13_8 H 0.310831 0.879910 0.928223
C28_8 C 0.3866(7) 0.9201(3) 0.8708(2)
H14_8 H 0.415980 0.939110 0.866170
C29_8 C 0.3457(9) 0.8828(3) 0.7929(2)
H15_8 H 0.349880 0.889956 0.772278
C30_8 C 0.3761(10) 0.9040(3) 0.8157(2)
H16_8 H 0.406335 0.922396 0.810475
O13_8 O 0.1829(6) 0.7301(2) 0.79696(16)
H17_8 H 0.204786 0.730647 0.812846
C31_8 C 0.2171(6) 0.7099(2) 0.77379(18)
C32_8 C 0.1812(6) 0.6330(3) 0.85421(19)
C33_8 C 0.1901(7) 0.6484(3) 0.79996(19)
C34_8 C 0.1004(7) 0.5623(3) 0.9252(2)
C35_8 C 0.2198(7) 0.6710(2) 0.77466(19)
C36_8 C 0.1322(7) 0.5865(3) 0.90064(18)
C37_8 C 0.1399(7) 0.6029(3) 0.84678(19)
C38_8 C 0.2072(7) 0.6561(3) 0.83026(19)
H18_8 H 0.234983 0.675881 0.834909
C39_8 C 0.1979(7) 0.6394(3) 0.8853(2)
H19_8 H 0.224318 0.659724 0.890407
C40_8 C 0.1758(7) 0.6164(3) 0.9079(2)
H20_8 H 0.189169 0.620090 0.928223
C41_8 C 0.1134(7) 0.5799(3) 0.8708(2)
H21_8 H 0.084020 0.560890 0.866170
C42_8 C 0.1543(9) 0.6172(3) 0.7929(2)
H22_8 H 0.150120 0.610044 0.772278
C43_8 C 0.1239(10) 0.5960(3) 0.8157(2)
H23_8 H 0.093665 0.577604 0.810475
O16_8 O 0.1829(6) 0.7699(2) 0.70304(16)
H24_8 H 0.204786 0.769353 0.687154
C44_8 C 0.2171(6) 0.7901(2) 0.72621(18)
C45_8 C 0.1812(6) 0.8670(3) 0.64579(19)
C46_8 C 0.1901(7) 0.8516(3) 0.70004(19)
C47_8 C 0.1004(7) 0.9377(3) 0.5748(2)
C48_8 C 0.2198(7) 0.8290(2) 0.72534(19)
C49_8 C 0.1322(7) 0.9135(3) 0.59936(18)
C50_8 C 0.1399(7) 0.8971(3) 0.65322(19)
C51_8 C 0.2072(7) 0.8439(3) 0.66974(19)
H25_8 H 0.234983 0.824119 0.665091
C52_8 C 0.1979(7) 0.8606(3) 0.6147(2)
H26_8 H 0.224318 0.840276 0.609593
C53_8 C 0.1758(7) 0.8836(3) 0.5921(2)
H27_8 H 0.189169 0.879910 0.571777
C54_8 C 0.1134(7) 0.9201(3) 0.6292(2)
H28_8 H 0.084020 0.939110 0.633830
C55_8 C 0.1543(9) 0.8828(3) 0.7071(2)
H29_8 H 0.150120 0.889956 0.727722
C56_8 C 0.1239(10) 0.9040(3) 0.6843(2)
H30_8 H 0.093665 0.922396 0.689525
loop_
_geom_bond_atom_site_label_1
_geom_bond_atom_site_label_2
_geom_bond_site_symmetry_1
_geom_bond_site_symmetry_2
Zr1 O1 1_555 1_555
Zr2 O3 1_555 1_555
O1 C5 1_555 1_555
O2 C5 1_555 1_555
O4 Zr1 1_555 1_555
O5 Zr1 1_555 1_555
O6 Zr2 1_555 1_555
O7 H1 1_555 1_555
C1 O7 1_555 1_555
C2 C1 1_555 1_555
C3 C9 1_555 1_555
C4 C6 1_555 1_555
C5 C8 1_555 1_555
C6 C1 1_555 1_555
C7 C6 1_555 1_555
H2 C7 1_555 1_555
C8 C12 1_555 1_555
C9 C13 1_555 1_555
C10 C3 1_555 1_555
H3 C10 1_555 1_555
C11 C3 1_555 1_555
H4 C11 1_555 1_555
C12 C11 1_555 1_555
H5 C12 1_555 1_555
C13 C8 1_555 1_555
H6 C13 1_555 1_555
C14 C4 1_555 1_555
H7 C14 1_555 1_555
C15 C9 1_555 1_555
H8 C15 1_555 1_555
O8 C20 1_555 1_555
O9 C20 1_555 1_555
O10 H9 1_555 1_555
C16 O10 1_555 1_555
C17 C2 1_555 1_555
C18 C24 1_555 1_555
C19 C21 1_555 1_555
C20 C23 1_555 1_555
C21 C16 1_555 1_555
C22 C21 1_555 1_555
H10 C22 1_555 1_555
C23 C27 1_555 1_555
C24 C28 1_555 1_555
C25 C18 1_555 1_555
H11 C25 1_555 1_555
C26 C18 1_555 1_555
H12 C26 1_555 1_555
C27 C26 1_555 1_555
H13 C27 1_555 1_555
C28 C23 1_555 1_555
H14 C28 1_555 1_555
C29 C19 1_555 1_555
H15 C29 1_555 1_555
C30 C24 1_555 1_555
H16 C30 1_555 1_555
O11 C34 1_555 1_555
O12 C34 1_555 1_555
O13 H17 1_555 1_555
C31 C2 1_555 1_555
C32 C37 1_555 1_555
C33 C35 1_555 1_555
C34 C36 1_555 1_555
C35 C7 1_555 1_555
C36 C40 1_555 1_555
C37 C41 1_555 1_555
C38 C32 1_555 1_555
H18 C38 1_555 1_555
C39 C32 1_555 1_555
H19 C39 1_555 1_555
C40 C39 1_555 1_555
H20 C40 1_555 1_555
C41 C36 1_555 1_555
H21 C41 1_555 1_555
C42 C33 1_555 1_555
H22 C42 1_555 1_555
C43 C37 1_555 1_555
H23 C43 1_555 1_555
O14 C47 1_555 1_555
O15 C47 1_555 1_555
O16 H24 1_555 1_555
C44 C17 1_555 1_555
C45 C50 1_555 1_555
C46 C48 1_555 1_555
C47 C49 1_555 1_555
C48 C22 1_555 1_555
C49 C53 1_555 1_555
C50 C54 1_555 1_555
C51 C45 1_555 1_555
H25 C51 1_555 1_555
C52 C45 1_555 1_555
H26 C52 1_555 1_555
C53 C52 1_555 1_555
H27 C53 1_555 1_555
C54 C49 1_555 1_555
H28 C54 1_555 1_555
C55 C46 1_555 1_555
H29 C55 1_555 1_555
C56 C50 1_555 1_555
H30 C56 1_555 1_555
Zr3 O2 1_555 1_555
O17 Zr3 1_555 1_555
O18 Zr1 1_555 1_555
O19 Zr1 1_555 1_555
O20 Zr3 1_555 1_555
Zr4_2 O8 1_555 1_555
Zr5_2 O11 1_555 1_555
Zr6_4 O14 1_555 1_555
Zr7 O5 1_555 1_555
Zr8 O4 1_555 1_555
Zr9_2 O9 1_555 1_555
Zr10_2 O12 1_555 1_555
Zr11 O15 1_555 1_555
O21 Zr1 1_555 1_555
O22 Zr1 1_555 1_555
O23 Zr1 1_555 1_555
O24 Zr2 1_555 1_555
O25 Zr2 1_555 1_555
O26 Zr3 1_555 1_555
O27 Zr3 1_555 1_555
O28 Zr2 1_555 1_555
O29 Zr2 1_555 1_555
O30 Zr3 1_555 1_555
Zr2 O4 1_555 1_555
Zr2 O5 1_555 1_555
C4 C10 1_555 1_555
C14 C15 1_555 1_555
C16 C17 1_555 1_555
C19 C25 1_555 1_555
C29 C30 1_555 1_555
O13 C31 1_555 1_555
C31 C35 1_555 1_555
C33 C38 1_555 1_555
C42 C43 1_555 1_555
O16 C44 1_555 1_555
C44 C48 1_555 1_555
C46 C51 1_555 1_555
C55 C56 1_555 1_555
Zr3 O18 1_555 1_555
Zr3 O19 1_555 1_555
O18 Zr7 1_555 1_555
O19 Zr8 1_555 1_555
Zr7 O27 1_555 1_555
Zr7 O29 1_555 1_555
Zr8 O28 1_555 1_555
Zr8 O30 1_555 1_555
O21 C5_2 1_555 1_555
O24 C5_2 1_555 1_555
O7_2 H1_2 1_555 1_555
C1_2 O7_2 1_555 1_555
C2_2 C1_2 1_555 1_555
C3_2 C9_2 1_555 1_555
C4_2 C6_2 1_555 1_555
C5_2 C8_2 1_555 1_555
C6_2 C1_2 1_555 1_555
C7_2 C6_2 1_555 1_555
H2_2 C7_2 1_555 1_555
C8_2 C12_2 1_555 1_555
C9_2 C13_2 1_555 1_555
C10_2 C3_2 1_555 1_555
H3_2 C10_2 1_555 1_555
C11_2 C3_2 1_555 1_555
H4_2 C11_2 1_555 1_555
C12_2 C11_2 1_555 1_555
H5_2 C12_2 1_555 1_555
C13_2 C8_2 1_555 1_555
H6_2 C13_2 1_555 1_555
C14_2 C4_2 1_555 1_555
H7_2 C14_2 1_555 1_555
C15_2 C9_2 1_555 1_555
H8_2 C15_2 1_555 1_555
O8_2 C20_2 1_555 1_555
O9_2 C20_2 1_555 1_555
O10_2 H9_2 1_555 1_555
C16_2 O10_2 1_555 1_555
C17_2 C2_2 1_555 1_555
C18_2 C24_2 1_555 1_555
C19_2 C21_2 1_555 1_555
C20_2 C23_2 1_555 1_555
C21_2 C16_2 1_555 1_555
C22_2 C21_2 1_555 1_555
H10_2 C22_2 1_555 1_555
C23_2 C27_2 1_555 1_555
C24_2 C28_2 1_555 1_555
C25_2 C18_2 1_555 1_555
H11_2 C25_2 1_555 1_555
C26_2 C18_2 1_555 1_555
H12_2 C26_2 1_555 1_555
C27_2 C26_2 1_555 1_555
H13_2 C27_2 1_555 1_555
C28_2 C23_2 1_555 1_555
H14_2 C28_2 1_555 1_555
C29_2 C19_2 1_555 1_555
H15_2 C29_2 1_555 1_555
C30_2 C24_2 1_555 1_555
H16_2 C30_2 1_555 1_555
O11_2 C34_2 1_555 1_555
O12_2 C34_2 1_555 1_555
O13_2 H17_2 1_555 1_555
C31_2 C2_2 1_555 1_555
C32_2 C37_2 1_555 1_555
C33_2 C35_2 1_555 1_555
C34_2 C36_2 1_555 1_555
C35_2 C7_2 1_555 1_555
C36_2 C40_2 1_555 1_555
C37_2 C41_2 1_555 1_555
C38_2 C32_2 1_555 1_555
H18_2 C38_2 1_555 1_555
C39_2 C32_2 1_555 1_555
H19_2 C39_2 1_555 1_555
C40_2 C39_2 1_555 1_555
H20_2 C40_2 1_555 1_555
C41_2 C36_2 1_555 1_555
H21_2 C41_2 1_555 1_555
C42_2 C33_2 1_555 1_555
H22_2 C42_2 1_555 1_555
C43_2 C37_2 1_555 1_555
H23_2 C43_2 1_555 1_555
O14_2 C47_2 1_555 1_555
O15_2 C47_2 1_555 1_555
O16_2 H24_2 1_555 1_555
C44_2 C17_2 1_555 1_555
C45_2 C50_2 1_555 1_555
C46_2 C48_2 1_555 1_555
C47_2 C49_2 1_555 1_555
C48_2 C22_2 1_555 1_555
C49_2 C53_2 1_555 1_555
C50_2 C54_2 1_555 1_555
C51_2 C45_2 1_555 1_555
H25_2 C51_2 1_555 1_555
C52_2 C45_2 1_555 1_555
H26_2 C52_2 1_555 1_555
C53_2 C52_2 1_555 1_555
H27_2 C53_2 1_555 1_555
C54_2 C49_2 1_555 1_555
H28_2 C54_2 1_555 1_555
C55_2 C46_2 1_555 1_555
H29_2 C55_2 1_555 1_555
C56_2 C50_2 1_555 1_555
H30_2 C56_2 1_555 1_555
Zr4 O8_2 1_555 1_555
Zr5 O11_2 1_555 1_555
Zr6 O14_2 1_555 1_555
Zr9_4 O9_2 1_555 1_555
Zr10_4 O12_2 1_555 1_555
Zr11_2 O15_2 1_555 1_555
C4_2 C10_2 1_555 1_555
C14_2 C15_2 1_555 1_555
C16_2 C17_2 1_555 1_555
C19_2 C25_2 1_555 1_555
C29_2 C30_2 1_555 1_555
O13_2 C31_2 1_555 1_555
C31_2 C35_2 1_555 1_555
C33_2 C38_2 1_555 1_555
C42_2 C43_2 1_555 1_555
O16_2 C44_2 1_555 1_555
C44_2 C48_2 1_555 1_555
C46_2 C51_2 1_555 1_555
C55_2 C56_2 1_555 1_555
Zr1_2 O1_2 1_555 1_555
Zr7 O3_2 1_555 1_555
O1_2 C5_3 1_555 1_555
O2_2 C5_3 1_555 1_555
O27 Zr1_2 1_555 1_555
O29 Zr1_2 1_555 1_555
O6_2 Zr7 1_555 1_555
O7_3 H1_3 1_555 1_555
C1_3 O7_3 1_555 1_555
C2_3 C1_3 1_555 1_555
C3_3 C9_3 1_555 1_555
C4_3 C6_3 1_555 1_555
C5_3 C8_3 1_555 1_555
C6_3 C1_3 1_555 1_555
C7_3 C6_3 1_555 1_555
H2_3 C7_3 1_555 1_555
C8_3 C12_3 1_555 1_555
C9_3 C13_3 1_555 1_555
C10_3 C3_3 1_555 1_555
H3_3 C10_3 1_555 1_555
C11_3 C3_3 1_555 1_555
H4_3 C11_3 1_555 1_555
C12_3 C11_3 1_555 1_555
H5_3 C12_3 1_555 1_555
C13_3 C8_3 1_555 1_555
H6_3 C13_3 1_555 1_555
C14_3 C4_3 1_555 1_555
H7_3 C14_3 1_555 1_555
C15_3 C9_3 1_555 1_555
H8_3 C15_3 1_555 1_555
O8_3 C20_3 1_555 1_555
O9_3 C20_3 1_555 1_555
O10_3 H9_3 1_555 1_555
C16_3 O10_3 1_555 1_555
C17_3 C2_3 1_555 1_555
C18_3 C24_3 1_555 1_555
C19_3 C21_3 1_555 1_555
C20_3 C23_3 1_555 1_555
C21_3 C16_3 1_555 1_555
C22_3 C21_3 1_555 1_555
H10_3 C22_3 1_555 1_555
C23_3 C27_3 1_555 1_555
C24_3 C28_3 1_555 1_555
C25_3 C18_3 1_555 1_555
H11_3 C25_3 1_555 1_555
C26_3 C18_3 1_555 1_555
H12_3 C26_3 1_555 1_555
C27_3 C26_3 1_555 1_555
H13_3 C27_3 1_555 1_555
C28_3 C23_3 1_555 1_555
H14_3 C28_3 1_555 1_555
C29_3 C19_3 1_555 1_555
H15_3 C29_3 1_555 1_555
C30_3 C24_3 1_555 1_555
H16_3 C30_3 1_555 1_555
O11_3 C34_3 1_555 1_555
O12_3 C34_3 1_555 1_555
O13_3 H17_3 1_555 1_555
C31_3 C2_3 1_555 1_555
C32_3 C37_3 1_555 1_555
C33_3 C35_3 1_555 1_555
C34_3 C36_3 1_555 1_555
C35_3 C7_3 1_555 1_555
C36_3 C40_3 1_555 1_555
C37_3 C41_3 1_555 1_555
C38_3 C32_3 1_555 1_555
H18_3 C38_3 1_555 1_555
C39_3 C32_3 1_555 1_555
H19_3 C39_3 1_555 1_555
C40_3 C39_3 1_555 1_555
H20_3 C40_3 1_555 1_555
C41_3 C36_3 1_555 1_555
H21_3 C41_3 1_555 1_555
C42_3 C33_3 1_555 1_555
H22_3 C42_3 1_555 1_555
C43_3 C37_3 1_555 1_555
H23_3 C43_3 1_555 1_555
O14_3 C47_3 1_555 1_555
O15_3 C47_3 1_555 1_555
O16_3 H24_3 1_555 1_555
C44_3 C17_3 1_555 1_555
C45_3 C50_3 1_555 1_555
C46_3 C48_3 1_555 1_555
C47_3 C49_3 1_555 1_555
C48_3 C22_3 1_555 1_555
C49_3 C53_3 1_555 1_555
C50_3 C54_3 1_555 1_555
C51_3 C45_3 1_555 1_555
H25_3 C51_3 1_555 1_555
C52_3 C45_3 1_555 1_555
H26_3 C52_3 1_555 1_555
C53_3 C52_3 1_555 1_555
H27_3 C53_3 1_555 1_555
C54_3 C49_3 1_555 1_555
H28_3 C54_3 1_555 1_555
C55_3 C46_3 1_555 1_555
H29_3 C55_3 1_555 1_555
C56_3 C50_3 1_555 1_555
H30_3 C56_3 1_555 1_555
Zr8 O2_2 1_555 1_555
O17_2 Zr8 1_555 1_555
O28 Zr1_2 1_555 1_555
O30 Zr1_2 1_555 1_555
O20_2 Zr8 1_555 1_555
Zr4_4 O8_3 1_555 1_555
Zr5_3 O11_3 1_555 1_555
Zr6_6 O14_3 1_555 1_555
Zr9_5 O9_3 1_555 1_555
Zr10_5 O12_3 1_555 1_555
Zr11_3 O15_3 1_555 1_555
O21_2 Zr1_2 1_555 1_555
O22_2 Zr1_2 1_555 1_555
O23_2 Zr1_2 1_555 1_555
O24_2 Zr7 1_555 1_555
O25_2 Zr7 1_555 1_555
O26_2 Zr8 1_555 1_555
C4_3 C10_3 1_555 1_555
C14_3 C15_3 1_555 1_555
C16_3 C17_3 1_555 1_555
C19_3 C25_3 1_555 1_555
C29_3 C30_3 1_555 1_555
O13_3 C31_3 1_555 1_555
C31_3 C35_3 1_555 1_555
C33_3 C38_3 1_555 1_555
C42_3 C43_3 1_555 1_555
O16_3 C44_3 1_555 1_555
C44_3 C48_3 1_555 1_555
C46_3 C51_3 1_555 1_555
C55_3 C56_3 1_555 1_555
O21_2 C5_4 1_555 1_555
O24_2 C5_4 1_555 1_555
O7_4 H1_4 1_555 1_555
C1_4 O7_4 1_555 1_555
C2_4 C1_4 1_555 1_555
C3_4 C9_4 1_555 1_555
C4_4 C6_4 1_555 1_555
C5_4 C8_4 1_555 1_555
C6_4 C1_4 1_555 1_555
C7_4 C6_4 1_555 1_555
H2_4 C7_4 1_555 1_555
C8_4 C12_4 1_555 1_555
C9_4 C13_4 1_555 1_555
C10_4 C3_4 1_555 1_555
H3_4 C10_4 1_555 1_555
C11_4 C3_4 1_555 1_555
H4_4 C11_4 1_555 1_555
C12_4 C11_4 1_555 1_555
H5_4 C12_4 1_555 1_555
C13_4 C8_4 1_555 1_555
H6_4 C13_4 1_555 1_555
C14_4 C4_4 1_555 1_555
H7_4 C14_4 1_555 1_555
C15_4 C9_4 1_555 1_555
H8_4 C15_4 1_555 1_555
O8_4 C20_4 1_555 1_555
O9_4 C20_4 1_555 1_555
O10_4 H9_4 1_555 1_555
C16_4 O10_4 1_555 1_555
C17_4 C2_4 1_555 1_555
C18_4 C24_4 1_555 1_555
C19_4 C21_4 1_555 1_555
C20_4 C23_4 1_555 1_555
C21_4 C16_4 1_555 1_555
C22_4 C21_4 1_555 1_555
H10_4 C22_4 1_555 1_555
C23_4 C27_4 1_555 1_555
C24_4 C28_4 1_555 1_555
C25_4 C18_4 1_555 1_555
H11_4 C25_4 1_555 1_555
C26_4 C18_4 1_555 1_555
H12_4 C26_4 1_555 1_555
C27_4 C26_4 1_555 1_555
H13_4 C27_4 1_555 1_555
C28_4 C23_4 1_555 1_555
H14_4 C28_4 1_555 1_555
C29_4 C19_4 1_555 1_555
H15_4 C29_4 1_555 1_555
C30_4 C24_4 1_555 1_555
H16_4 C30_4 1_555 1_555
O11_4 C34_4 1_555 1_555
O12_4 C34_4 1_555 1_555
O13_4 H17_4 1_555 1_555
C31_4 C2_4 1_555 1_555
C32_4 C37_4 1_555 1_555
C33_4 C35_4 1_555 1_555
C34_4 C36_4 1_555 1_555
C35_4 C7_4 1_555 1_555
C36_4 C40_4 1_555 1_555
C37_4 C41_4 1_555 1_555
C38_4 C32_4 1_555 1_555
H18_4 C38_4 1_555 1_555
C39_4 C32_4 1_555 1_555
H19_4 C39_4 1_555 1_555
C40_4 C39_4 1_555 1_555
H20_4 C40_4 1_555 1_555
C41_4 C36_4 1_555 1_555
H21_4 C41_4 1_555 1_555
C42_4 C33_4 1_555 1_555
H22_4 C42_4 1_555 1_555
C43_4 C37_4 1_555 1_555
H23_4 C43_4 1_555 1_555
O14_4 C47_4 1_555 1_555
O15_4 C47_4 1_555 1_555
O16_4 H24_4 1_555 1_555
C44_4 C17_4 1_555 1_555
C45_4 C50_4 1_555 1_555
C46_4 C48_4 1_555 1_555
C47_4 C49_4 1_555 1_555
C48_4 C22_4 1_555 1_555
C49_4 C53_4 1_555 1_555
C50_4 C54_4 1_555 1_555
C51_4 C45_4 1_555 1_555
H25_4 C51_4 1_555 1_555
C52_4 C45_4 1_555 1_555
H26_4 C52_4 1_555 1_555
C53_4 C52_4 1_555 1_555
H27_4 C53_4 1_555 1_555
C54_4 C49_4 1_555 1_555
H28_4 C54_4 1_555 1_555
C55_4 C46_4 1_555 1_555
H29_4 C55_4 1_555 1_555
C56_4 C50_4 1_555 1_555
H30_4 C56_4 1_555 1_555
Zr4_3 O8_4 1_555 1_555
Zr5_4 O11_4 1_555 1_555
Zr6_7 O14_4 1_555 1_555
Zr9_7 O9_4 1_555 1_555
Zr10_7 O12_4 1_555 1_555
Zr11_4 O15_4 1_555 1_555
C4_4 C10_4 1_555 1_555
C14_4 C15_4 1_555 1_555
C16_4 C17_4 1_555 1_555
C19_4 C25_4 1_555 1_555
C29_4 C30_4 1_555 1_555
O13_4 C31_4 1_555 1_555
C31_4 C35_4 1_555 1_555
C33_4 C38_4 1_555 1_555
C42_4 C43_4 1_555 1_555
O16_4 C44_4 1_555 1_555
C44_4 C48_4 1_555 1_555
C46_4 C51_4 1_555 1_555
C55_4 C56_4 1_555 1_555
O4_2 Zr4_3 1_555 1_555
O17_3 Zr9_7 1_555 1_555
O18_2 Zr4_3 1_555 1_555
O19_2 Zr4_3 1_555 1_555
O20_3 Zr9_7 1_555 1_555
Zr9_3 O4_2 1_555 1_555
O23_3 Zr4_3 1_555 1_555
Zr9_7 O18_2 1_555 1_555
Zr9_7 O19_2 1_555 1_555
O19_2 Zr9_3 1_555 1_555
O17_4 Zr9_8 1_555 1_555
O20_4 Zr9_8 1_555 1_555
O26_3 Zr9_8 1_555 1_555
O27_2 Zr9_8 1_555 1_555
O30_2 Zr9_8 1_555 1_555
Zr9_4 O28_2 1_555 1_555
Zr9_4 O30_2 1_555 1_555
Zr9_5 O3_3 1_555 1_555
O4_3 Zr4_4 1_555 1_555
O5_2 Zr4_4 1_555 1_555
O6_3 Zr9_5 1_555 1_555
O18_3 Zr4_4 1_555 1_555
Zr9 O5_2 1_555 1_555
O22_3 Zr4_4 1_555 1_555
Zr9_5 O4_3 1_555 1_555
Zr9_5 O5_2 1_555 1_555
O18_3 Zr9 1_555 1_555
Zr9_6 O3_4 1_555 1_555
O6_4 Zr9_6 1_555 1_555
O25_3 Zr9_6 1_555 1_555
O28_3 Zr9_6 1_555 1_555
O29_2 Zr9_6 1_555 1_555
Zr9_2 O27_3 1_555 1_555
Zr9_2 O29_2 1_555 1_555
O17_5 Zr9_3 1_555 1_555
O20_5 Zr9_3 1_555 1_555
O26_4 Zr9_3 1_555 1_555
O27_2 Zr4 1_555 1_555
O17_6 Zr9_4 1_555 1_555
O28_2 Zr4 1_555 1_555
O30_2 Zr4 1_555 1_555
O20_6 Zr9_4 1_555 1_555
O23_4 Zr4 1_555 1_555
Zr9 O3_5 1_555 1_555
O6_5 Zr9 1_555 1_555
O25_4 Zr9 1_555 1_555
Zr9_2 O3_6 1_555 1_555
O27_3 Zr4_2 1_555 1_555
O29_2 Zr4_2 1_555 1_555
O6_6 Zr9_2 1_555 1_555
O28_3 Zr4_2 1_555 1_555
O22_4 Zr4_2 1_555 1_555
O5_3 Zr5_3 1_555 1_555
O17_7 Zr10_5 1_555 1_555
O18_4 Zr5_3 1_555 1_555
O19_3 Zr5_3 1_555 1_555
O20_7 Zr10_5 1_555 1_555
Zr10_3 O5_3 1_555 1_555
O22_5 Zr5_3 1_555 1_555
Zr10_5 O18_4 1_555 1_555
Zr10_5 O19_3 1_555 1_555
O18_4 Zr10_3 1_555 1_555
O17_8 Zr10_6 1_555 1_555
O20_8 Zr10_6 1_555 1_555
O26_5 Zr10_6 1_555 1_555
O27_4 Zr10_6 1_555 1_555
O30_3 Zr10_6 1_555 1_555
Zr10_4 O27_4 1_555 1_555
Zr10_4 O29_3 1_555 1_555
Zr10_7 O3_7 1_555 1_555
O4_4 Zr5_4 1_555 1_555
O5_4 Zr5_4 1_555 1_555
O6_7 Zr10_7 1_555 1_555
O19_4 Zr5_4 1_555 1_555
Zr10 O4_4 1_555 1_555
O23_5 Zr5_4 1_555 1_555
Zr10_7 O4_4 1_555 1_555
Zr10_7 O5_4 1_555 1_555
O19_4 Zr10 1_555 1_555
Zr10_8 O3_8 1_555 1_555
O6_8 Zr10_8 1_555 1_555
O25_5 Zr10_8 1_555 1_555
O28_4 Zr10_8 1_555 1_555
O29_4 Zr10_8 1_555 1_555
Zr10_2 O28_4 1_555 1_555
Zr10_2 O30_4 1_555 1_555
Zr10_3 O3_9 1_555 1_555
O6_9 Zr10_3 1_555 1_555
O25_6 Zr10_3 1_555 1_555
Zr10_4 O3_10 1_555 1_555
O27_4 Zr5 1_555 1_555
O29_3 Zr5 1_555 1_555
O6_10 Zr10_4 1_555 1_555
O30_3 Zr5 1_555 1_555
O23_6 Zr5 1_555 1_555
O17_9 Zr10 1_555 1_555
O20_9 Zr10 1_555 1_555
O26_6 Zr10 1_555 1_555
O29_4 Zr5_2 1_555 1_555
O17_10 Zr10_2 1_555 1_555
O28_4 Zr5_2 1_555 1_555
O30_4 Zr5_2 1_555 1_555
O20_10 Zr10_2 1_555 1_555
O22_6 Zr5_2 1_555 1_555
O17_11 Zr11_2 1_555 1_555
O18_5 Zr6 1_555 1_555
O19_5 Zr6 1_555 1_555
O20_11 Zr11_2 1_555 1_555
O26_7 Zr11_2 1_555 1_555
O27_5 Zr11_2 1_555 1_555
O30_5 Zr11_2 1_555 1_555
Zr11_2 O18_5 1_555 1_555
Zr11_2 O19_5 1_555 1_555
O5_5 Zr6_2 1_555 1_555
O18_6 Zr6_2 1_555 1_555
Zr11_3 O5_5 1_555 1_555
O22_7 Zr6_2 1_555 1_555
O18_6 Zr11_3 1_555 1_555
Zr11_3 O27_6 1_555 1_555
Zr11_3 O29_5 1_555 1_555
O4_5 Zr6_3 1_555 1_555
O19_6 Zr6_3 1_555 1_555
Zr11_4 O4_5 1_555 1_555
O23_7 Zr6_3 1_555 1_555
O19_6 Zr11_4 1_555 1_555
Zr11_4 O28_5 1_555 1_555
Zr11_4 O30_6 1_555 1_555
Zr11 O3_11 1_555 1_555
O4_6 Zr6_4 1_555 1_555
O5_6 Zr6_4 1_555 1_555
O6_11 Zr11 1_555 1_555
O25_7 Zr11 1_555 1_555
O28_6 Zr11 1_555 1_555
O29_6 Zr11 1_555 1_555
Zr11 O4_6 1_555 1_555
Zr11 O5_6 1_555 1_555
O27_5 Zr6_5 1_555 1_555
O30_5 Zr6_5 1_555 1_555
O23_8 Zr6_5 1_555 1_555
Zr11_3 O3_12 1_555 1_555
O27_6 Zr6_6 1_555 1_555
O29_5 Zr6_6 1_555 1_555
O6_12 Zr11_3 1_555 1_555
O25_8 Zr11_3 1_555 1_555
O17_12 Zr11_4 1_555 1_555
O28_5 Zr6_7 1_555 1_555
O30_6 Zr6_7 1_555 1_555
O20_12 Zr11_4 1_555 1_555
O26_8 Zr11_4 1_555 1_555
O29_6 Zr6_8 1_555 1_555
O28_6 Zr6_8 1_555 1_555
O22_8 Zr6_8 1_555 1_555
O22_2 C5_5 1_555 1_555
O25 C5_5 1_555 1_555
O7_5 H1_5 1_555 1_555
C1_5 O7_5 1_555 1_555
C2_5 C1_5 1_555 1_555
C3_5 C9_5 1_555 1_555
C4_5 C6_5 1_555 1_555
C5_5 C8_5 1_555 1_555
C6_5 C1_5 1_555 1_555
C7_5 C6_5 1_555 1_555
H2_5 C7_5 1_555 1_555
C8_5 C12_5 1_555 1_555
C9_5 C13_5 1_555 1_555
C10_5 C3_5 1_555 1_555
H3_5 C10_5 1_555 1_555
C11_5 C3_5 1_555 1_555
H4_5 C11_5 1_555 1_555
C12_5 C11_5 1_555 1_555
H5_5 C12_5 1_555 1_555
C13_5 C8_5 1_555 1_555
H6_5 C13_5 1_555 1_555
C14_5 C4_5 1_555 1_555
H7_5 C14_5 1_555 1_555
C15_5 C9_5 1_555 1_555
H8_5 C15_5 1_555 1_555
O23_3 C20_5 1_555 1_555
O26_4 C20_5 1_555 1_555
O10_5 H9_5 1_555 1_555
C16_5 O10_5 1_555 1_555
C17_5 C2_5 1_555 1_555
C18_5 C24_5 1_555 1_555
C19_5 C21_5 1_555 1_555
C20_5 C23_5 1_555 1_555
C21_5 C16_5 1_555 1_555
C22_5 C21_5 1_555 1_555
H10_5 C22_5 1_555 1_555
C23_5 C27_5 1_555 1_555
C24_5 C28_5 1_555 1_555
C25_5 C18_5 1_555 1_555
H11_5 C25_5 1_555 1_555
C26_5 C18_5 1_555 1_555
H12_5 C26_5 1_555 1_555
C27_5 C26_5 1_555 1_555
H13_5 C27_5 1_555 1_555
C28_5 C23_5 1_555 1_555
H14_5 C28_5 1_555 1_555
C29_5 C19_5 1_555 1_555
H15_5 C29_5 1_555 1_555
C30_5 C24_5 1_555 1_555
H16_5 C30_5 1_555 1_555
O22_5 C34_5 1_555 1_555
O25_6 C34_5 1_555 1_555
O13_5 H17_5 1_555 1_555
C31_5 C2_5 1_555 1_555
C32_5 C37_5 1_555 1_555
C33_5 C35_5 1_555 1_555
C34_5 C36_5 1_555 1_555
C35_5 C7_5 1_555 1_555
C36_5 C40_5 1_555 1_555
C37_5 C41_5 1_555 1_555
C38_5 C32_5 1_555 1_555
H18_5 C38_5 1_555 1_555
C39_5 C32_5 1_555 1_555
H19_5 C39_5 1_555 1_555
C40_5 C39_5 1_555 1_555
H20_5 C40_5 1_555 1_555
C41_5 C36_5 1_555 1_555
H21_5 C41_5 1_555 1_555
C42_5 C33_5 1_555 1_555
H22_5 C42_5 1_555 1_555
C43_5 C37_5 1_555 1_555
H23_5 C43_5 1_555 1_555
O23_8 C47_5 1_555 1_555
O26_7 C47_5 1_555 1_555
O16_5 H24_5 1_555 1_555
C44_5 C17_5 1_555 1_555
C45_5 C50_5 1_555 1_555
C46_5 C48_5 1_555 1_555
C47_5 C49_5 1_555 1_555
C48_5 C22_5 1_555 1_555
C49_5 C53_5 1_555 1_555
C50_5 C54_5 1_555 1_555
C51_5 C45_5 1_555 1_555
H25_5 C51_5 1_555 1_555
C52_5 C45_5 1_555 1_555
H26_5 C52_5 1_555 1_555
C53_5 C52_5 1_555 1_555
H27_5 C53_5 1_555 1_555
C54_5 C49_5 1_555 1_555
H28_5 C54_5 1_555 1_555
C55_5 C46_5 1_555 1_555
H29_5 C55_5 1_555 1_555
C56_5 C50_5 1_555 1_555
H30_5 C56_5 1_555 1_555
C4_5 C10_5 1_555 1_555
C14_5 C15_5 1_555 1_555
C16_5 C17_5 1_555 1_555
C19_5 C25_5 1_555 1_555
C29_5 C30_5 1_555 1_555
O13_5 C31_5 1_555 1_555
C31_5 C35_5 1_555 1_555
C33_5 C38_5 1_555 1_555
C42_5 C43_5 1_555 1_555
O16_5 C44_5 1_555 1_555
C44_5 C48_5 1_555 1_555
C46_5 C51_5 1_555 1_555
C55_5 C56_5 1_555 1_555
O23_2 C5_6 1_555 1_555
O26 C5_6 1_555 1_555
O7_6 H1_6 1_555 1_555
C1_6 O7_6 1_555 1_555
C2_6 C1_6 1_555 1_555
C3_6 C9_6 1_555 1_555
C4_6 C6_6 1_555 1_555
C5_6 C8_6 1_555 1_555
C6_6 C1_6 1_555 1_555
C7_6 C6_6 1_555 1_555
H2_6 C7_6 1_555 1_555
C8_6 C12_6 1_555 1_555
C9_6 C13_6 1_555 1_555
C10_6 C3_6 1_555 1_555
H3_6 C10_6 1_555 1_555
C11_6 C3_6 1_555 1_555
H4_6 C11_6 1_555 1_555
C12_6 C11_6 1_555 1_555
H5_6 C12_6 1_555 1_555
C13_6 C8_6 1_555 1_555
H6_6 C13_6 1_555 1_555
C14_6 C4_6 1_555 1_555
H7_6 C14_6 1_555 1_555
C15_6 C9_6 1_555 1_555
H8_6 C15_6 1_555 1_555
O22_3 C20_6 1_555 1_555
O25_4 C20_6 1_555 1_555
O10_6 H9_6 1_555 1_555
C16_6 O10_6 1_555 1_555
C17_6 C2_6 1_555 1_555
C18_6 C24_6 1_555 1_555
C19_6 C21_6 1_555 1_555
C20_6 C23_6 1_555 1_555
C21_6 C16_6 1_555 1_555
C22_6 C21_6 1_555 1_555
H10_6 C22_6 1_555 1_555
C23_6 C27_6 1_555 1_555
C24_6 C28_6 1_555 1_555
C25_6 C18_6 1_555 1_555
H11_6 C25_6 1_555 1_555
C26_6 C18_6 1_555 1_555
H12_6 C26_6 1_555 1_555
C27_6 C26_6 1_555 1_555
H13_6 C27_6 1_555 1_555
C28_6 C23_6 1_555 1_555
H14_6 C28_6 1_555 1_555
C29_6 C19_6 1_555 1_555
H15_6 C29_6 1_555 1_555
C30_6 C24_6 1_555 1_555
H16_6 C30_6 1_555 1_555
O23_5 C34_6 1_555 1_555
O26_6 C34_6 1_555 1_555
O13_6 H17_6 1_555 1_555
C31_6 C2_6 1_555 1_555
C32_6 C37_6 1_555 1_555
C33_6 C35_6 1_555 1_555
C34_6 C36_6 1_555 1_555
C35_6 C7_6 1_555 1_555
C36_6 C40_6 1_555 1_555
C37_6 C41_6 1_555 1_555
C38_6 C32_6 1_555 1_555
H18_6 C38_6 1_555 1_555
C39_6 C32_6 1_555 1_555
H19_6 C39_6 1_555 1_555
C40_6 C39_6 1_555 1_555
H20_6 C40_6 1_555 1_555
C41_6 C36_6 1_555 1_555
H21_6 C41_6 1_555 1_555
C42_6 C33_6 1_555 1_555
H22_6 C42_6 1_555 1_555
C43_6 C37_6 1_555 1_555
H23_6 C43_6 1_555 1_555
O22_8 C47_6 1_555 1_555
O25_7 C47_6 1_555 1_555
O16_6 H24_6 1_555 1_555
C44_6 C17_6 1_555 1_555
C45_6 C50_6 1_555 1_555
C46_6 C48_6 1_555 1_555
C47_6 C49_6 1_555 1_555
C48_6 C22_6 1_555 1_555
C49_6 C53_6 1_555 1_555
C50_6 C54_6 1_555 1_555
C51_6 C45_6 1_555 1_555
H25_6 C51_6 1_555 1_555
C52_6 C45_6 1_555 1_555
H26_6 C52_6 1_555 1_555
C53_6 C52_6 1_555 1_555
H27_6 C53_6 1_555 1_555
C54_6 C49_6 1_555 1_555
H28_6 C54_6 1_555 1_555
C55_6 C46_6 1_555 1_555
H29_6 C55_6 1_555 1_555
C56_6 C50_6 1_555 1_555
H30_6 C56_6 1_555 1_555
C4_6 C10_6 1_555 1_555
C14_6 C15_6 1_555 1_555
C16_6 C17_6 1_555 1_555
C19_6 C25_6 1_555 1_555
C29_6 C30_6 1_555 1_555
O13_6 C31_6 1_555 1_555
C31_6 C35_6 1_555 1_555
C33_6 C38_6 1_555 1_555
C42_6 C43_6 1_555 1_555
O16_6 C44_6 1_555 1_555
C44_6 C48_6 1_555 1_555
C46_6 C51_6 1_555 1_555
C55_6 C56_6 1_555 1_555
O22 C5_7 1_555 1_555
O25_2 C5_7 1_555 1_555
O7_7 H1_7 1_555 1_555
C1_7 O7_7 1_555 1_555
C2_7 C1_7 1_555 1_555
C3_7 C9_7 1_555 1_555
C4_7 C6_7 1_555 1_555
C5_7 C8_7 1_555 1_555
C6_7 C1_7 1_555 1_555
C7_7 C6_7 1_555 1_555
H2_7 C7_7 1_555 1_555
C8_7 C12_7 1_555 1_555
C9_7 C13_7 1_555 1_555
C10_7 C3_7 1_555 1_555
H3_7 C10_7 1_555 1_555
C11_7 C3_7 1_555 1_555
H4_7 C11_7 1_555 1_555
C12_7 C11_7 1_555 1_555
H5_7 C12_7 1_555 1_555
C13_7 C8_7 1_555 1_555
H6_7 C13_7 1_555 1_555
C14_7 C4_7 1_555 1_555
H7_7 C14_7 1_555 1_555
C15_7 C9_7 1_555 1_555
H8_7 C15_7 1_555 1_555
O23_4 C20_7 1_555 1_555
O26_3 C20_7 1_555 1_555
O10_7 H9_7 1_555 1_555
C16_7 O10_7 1_555 1_555
C17_7 C2_7 1_555 1_555
C18_7 C24_7 1_555 1_555
C19_7 C21_7 1_555 1_555
C20_7 C23_7 1_555 1_555
C21_7 C16_7 1_555 1_555
C22_7 C21_7 1_555 1_555
H10_7 C22_7 1_555 1_555
C23_7 C27_7 1_555 1_555
C24_7 C28_7 1_555 1_555
C25_7 C18_7 1_555 1_555
H11_7 C25_7 1_555 1_555
C26_7 C18_7 1_555 1_555
H12_7 C26_7 1_555 1_555
C27_7 C26_7 1_555 1_555
H13_7 C27_7 1_555 1_555
C28_7 C23_7 1_555 1_555
H14_7 C28_7 1_555 1_555
C29_7 C19_7 1_555 1_555
H15_7 C29_7 1_555 1_555
C30_7 C24_7 1_555 1_555
H16_7 C30_7 1_555 1_555
O22_6 C34_7 1_555 1_555
O25_5 C34_7 1_555 1_555
O13_7 H17_7 1_555 1_555
C31_7 C2_7 1_555 1_555
C32_7 C37_7 1_555 1_555
C33_7 C35_7 1_555 1_555
C34_7 C36_7 1_555 1_555
C35_7 C7_7 1_555 1_555
C36_7 C40_7 1_555 1_555
C37_7 C41_7 1_555 1_555
C38_7 C32_7 1_555 1_555
H18_7 C38_7 1_555 1_555
C39_7 C32_7 1_555 1_555
H19_7 C39_7 1_555 1_555
C40_7 C39_7 1_555 1_555
H20_7 C40_7 1_555 1_555
C41_7 C36_7 1_555 1_555
H21_7 C41_7 1_555 1_555
C42_7 C33_7 1_555 1_555
H22_7 C42_7 1_555 1_555
C43_7 C37_7 1_555 1_555
H23_7 C43_7 1_555 1_555
O23_7 C47_7 1_555 1_555
O26_8 C47_7 1_555 1_555
O16_7 H24_7 1_555 1_555
C44_7 C17_7 1_555 1_555
C45_7 C50_7 1_555 1_555
C46_7 C48_7 1_555 1_555
C47_7 C49_7 1_555 1_555
C48_7 C22_7 1_555 1_555
C49_7 C53_7 1_555 1_555
C50_7 C54_7 1_555 1_555
C51_7 C45_7 1_555 1_555
H25_7 C51_7 1_555 1_555
C52_7 C45_7 1_555 1_555
H26_7 C52_7 1_555 1_555
C53_7 C52_7 1_555 1_555
H27_7 C53_7 1_555 1_555
C54_7 C49_7 1_555 1_555
H28_7 C54_7 1_555 1_555
C55_7 C46_7 1_555 1_555
H29_7 C55_7 1_555 1_555
C56_7 C50_7 1_555 1_555
H30_7 C56_7 1_555 1_555
C4_7 C10_7 1_555 1_555
C14_7 C15_7 1_555 1_555
C16_7 C17_7 1_555 1_555
C19_7 C25_7 1_555 1_555
C29_7 C30_7 1_555 1_555
O13_7 C31_7 1_555 1_555
C31_7 C35_7 1_555 1_555
C33_7 C38_7 1_555 1_555
C42_7 C43_7 1_555 1_555
O16_7 C44_7 1_555 1_555
C44_7 C48_7 1_555 1_555
C46_7 C51_7 1_555 1_555
C55_7 C56_7 1_555 1_555
O23 C5_8 1_555 1_555
O26_2 C5_8 1_555 1_555
O7_8 H1_8 1_555 1_555
C1_8 O7_8 1_555 1_555
C2_8 C1_8 1_555 1_555
C3_8 C9_8 1_555 1_555
C4_8 C6_8 1_555 1_555
C5_8 C8_8 1_555 1_555
C6_8 C1_8 1_555 1_555
C7_8 C6_8 1_555 1_555
H2_8 C7_8 1_555 1_555
C8_8 C12_8 1_555 1_555
C9_8 C13_8 1_555 1_555
C10_8 C3_8 1_555 1_555
H3_8 C10_8 1_555 1_555
C11_8 C3_8 1_555 1_555
H4_8 C11_8 1_555 1_555
C12_8 C11_8 1_555 1_555
H5_8 C12_8 1_555 1_555
C13_8 C8_8 1_555 1_555
H6_8 C13_8 1_555 1_555
C14_8 C4_8 1_555 1_555
H7_8 C14_8 1_555 1_555
C15_8 C9_8 1_555 1_555
H8_8 C15_8 1_555 1_555
O22_4 C20_8 1_555 1_555
O25_3 C20_8 1_555 1_555
O10_8 H9_8 1_555 1_555
C16_8 O10_8 1_555 1_555
C17_8 C2_8 1_555 1_555
C18_8 C24_8 1_555 1_555
C19_8 C21_8 1_555 1_555
C20_8 C23_8 1_555 1_555
C21_8 C16_8 1_555 1_555
C22_8 C21_8 1_555 1_555
H10_8 C22_8 1_555 1_555
C23_8 C27_8 1_555 1_555
C24_8 C28_8 1_555 1_555
C25_8 C18_8 1_555 1_555
H11_8 C25_8 1_555 1_555
C26_8 C18_8 1_555 1_555
H12_8 C26_8 1_555 1_555
C27_8 C26_8 1_555 1_555
H13_8 C27_8 1_555 1_555
C28_8 C23_8 1_555 1_555
H14_8 C28_8 1_555 1_555
C29_8 C19_8 1_555 1_555
H15_8 C29_8 1_555 1_555
C30_8 C24_8 1_555 1_555
H16_8 C30_8 1_555 1_555
O23_6 C34_8 1_555 1_555
O26_5 C34_8 1_555 1_555
O13_8 H17_8 1_555 1_555
C31_8 C2_8 1_555 1_555
C32_8 C37_8 1_555 1_555
C33_8 C35_8 1_555 1_555
C34_8 C36_8 1_555 1_555
C35_8 C7_8 1_555 1_555
C36_8 C40_8 1_555 1_555
C37_8 C41_8 1_555 1_555
C38_8 C32_8 1_555 1_555
H18_8 C38_8 1_555 1_555
C39_8 C32_8 1_555 1_555
H19_8 C39_8 1_555 1_555
C40_8 C39_8 1_555 1_555
H20_8 C40_8 1_555 1_555
C41_8 C36_8 1_555 1_555
H21_8 C41_8 1_555 1_555
C42_8 C33_8 1_555 1_555
H22_8 C42_8 1_555 1_555
C43_8 C37_8 1_555 1_555
H23_8 C43_8 1_555 1_555
O22_7 C47_8 1_555 1_555
O25_8 C47_8 1_555 1_555
O16_8 H24_8 1_555 1_555
C44_8 C17_8 1_555 1_555
C45_8 C50_8 1_555 1_555
C46_8 C48_8 1_555 1_555
C47_8 C49_8 1_555 1_555
C48_8 C22_8 1_555 1_555
C49_8 C53_8 1_555 1_555
C50_8 C54_8 1_555 1_555
C51_8 C45_8 1_555 1_555
H25_8 C51_8 1_555 1_555
C52_8 C45_8 1_555 1_555
H26_8 C52_8 1_555 1_555
C53_8 C52_8 1_555 1_555
H27_8 C53_8 1_555 1_555
C54_8 C49_8 1_555 1_555
H28_8 C54_8 1_555 1_555
C55_8 C46_8 1_555 1_555
H29_8 C55_8 1_555 1_555
C56_8 C50_8 1_555 1_555
H30_8 C56_8 1_555 1_555
C4_8 C10_8 1_555 1_555
C14_8 C15_8 1_555 1_555
C16_8 C17_8 1_555 1_555
C19_8 C25_8 1_555 1_555
C29_8 C30_8 1_555 1_555
O13_8 C31_8 1_555 1_555
C31_8 C35_8 1_555 1_555
C33_8 C38_8 1_555 1_555
C42_8 C43_8 1_555 1_555
O16_8 C44_8 1_555 1_555
C44_8 C48_8 1_555 1_555
C46_8 C51_8 1_555 1_555
C55_8 C56_8 1_555 1_555

#END
