
###############################################################################
#
# This file contains modified crystal structure data generated from the
# MOF subset of the Cambridge Structural Database (CSD) v543 
# hosted by the Cambridge Crystallographic Data Centre (CCDC).
#
# This work is licensed under the Creative Commons
# Attribution-NonCommercial-ShareAlike 4.0 International License.
# To view a copy of this license, visit
# http://creativecommons.org/licenses/by-nc-sa/4.0/
# or send a letter to
# Creative Commons, PO Box 1866, Mountain View, CA 94042, USA.
#
# CIF created using the CSD Python API on 29 September 2022
# The structure has been converted into the P1 space group
# The structure has a 3D framework
# The original CSD entry ZUKXOV is in the orthorhombic crystal system
# The framework has been calculated to contain at least 10.0% void space
# The void calculation uses a probe of radius 1.32A, grid spacing 0.4
# H atom positions have been added when not included in the experimental data
# Generated hydrogen atom positions removed from atoms on special positions
#
###############################################################################

data_ZUKXOV
_chemical_formula_moiety         '(C448 H360 O192 Zr42)n'
_symmetry_cell_setting           triclinic
_symmetry_space_group_name_H-M   'P 1'
_symmetry_Int_Tables_number      1
_space_group_name_Hall           'P 1'
loop_
_symmetry_equiv_pos_site_id
_symmetry_equiv_pos_as_xyz
1 x,y,z
_cell_length_a                   16.031(2)
_cell_length_b                   36.971(5)
_cell_length_c                   44.102(5)
_cell_angle_alpha                90
_cell_angle_beta                 90
_cell_angle_gamma                90
_cell_volume                     26138.5
loop_
_atom_site_label
_atom_site_type_symbol
_atom_site_fract_x
_atom_site_fract_y
_atom_site_fract_z
Zr1 Zr 0.11076(14) 0.45194(3) 0.0000
Zr2 Zr 0.0000 0.5000 0.05543(4)
O1 O 0.1702(9) 0.2706(3) 0.20249(19)
H1 H 0.1348 0.2572 0.2098
C1 C 0.2500 0.2704(3) 0.2500
C2 C 0.2500 0.3449(4) 0.2500
H2 H 0.2500 0.3700 0.2500
C3 C 0.1233(5) 0.41948(14) 0.12764(11)
H3 H 0.0889 0.4393 0.1313
C4 C 0.1541(5) 0.41328(16) 0.09864(9)
C5 C 0.2055(6) 0.38370(18) 0.09316(9)
H4 H 0.2261 0.3796 0.0738
C6 C 0.2260(5) 0.36033(16) 0.11668(10)
H5 H 0.2604 0.3405 0.1130
C7 C 0.1952(4) 0.36652(11) 0.14568(8)
C8 C 0.1439(3) 0.39610(11) 0.15116(8)
C9 C 0.1131(5) 0.40229(16) 0.18016(10)
H6 H 0.0787 0.4221 0.1838
C10 C 0.1337(5) 0.37891(17) 0.20369(9)
H7 H 0.1130 0.3831 0.2231
C11 C 0.1850(5) 0.34934(16) 0.19821(9)
C12 C 0.2158(5) 0.34314(14) 0.16921(11)
H8 H 0.2502 0.3234 0.1655
C13 C 0.2118(7) 0.2891(2) 0.2260(2)
C14 C 0.2112(8) 0.3268(2) 0.22535(19)
C15 C 0.1259(11) 0.4381(3) 0.0729(3)
O2 O 0.0813(6) 0.46434(18) 0.08055(14)
O3 O 0.2422(11) 0.4527(3) 0.0000
O4 O 0.1135(9) 0.5000 0.0275(2)
O5 O 0.0000 0.4503(3) 0.0274(3)
O6 O 0.1049(10) 0.3923(2) 0.0000
O7 O 0.1512(7) 0.4310(2) 0.04616(16)
O8 O 0.1702(9) 0.2294(3) 0.29751(19)
H9 H 0.1348 0.2428 0.2902
C16 C 0.2500 0.2296(3) 0.2500
C17 C 0.2500 0.1551(4) 0.2500
H10 H 0.2500 0.1300 0.2500
C18 C 0.1233(5) 0.08052(14) 0.37236(11)
H11 H 0.0889 0.0607 0.3687
C19 C 0.1541(5) 0.08672(16) 0.40136(9)
C20 C 0.2055(6) 0.11630(18) 0.40684(9)
H12 H 0.2261 0.1204 0.4262
C21 C 0.2260(5) 0.13967(16) 0.38332(10)
H13 H 0.2604 0.1595 0.3870
C22 C 0.1952(4) 0.13348(11) 0.35432(8)
C23 C 0.1439(3) 0.10390(11) 0.34884(8)
C24 C 0.1131(5) 0.09771(16) 0.31984(10)
H14 H 0.0787 0.0779 0.3162
C25 C 0.1337(5) 0.12109(17) 0.29631(9)
H15 H 0.1130 0.1169 0.2769
C26 C 0.1850(5) 0.15066(16) 0.30179(9)
C27 C 0.2158(5) 0.15686(14) 0.33079(11)
H16 H 0.2502 0.1766 0.3345
C28 C 0.2118(7) 0.2109(2) 0.2740(2)
C29 C 0.2112(8) 0.1732(2) 0.27465(19)
C30 C 0.1259(11) 0.0619(3) 0.4271(3)
O9 O 0.0813(6) 0.03566(18) 0.41945(14)
O10 O 0.1512(7) 0.0690(2) 0.45384(16)
O11 O 0.3298(9) 0.2706(3) 0.29751(19)
H17 H 0.3652 0.2572 0.2902
C31 C 0.3767(5) 0.41948(14) 0.37236(11)
H18 H 0.4111 0.4393 0.3687
C32 C 0.3459(5) 0.41328(16) 0.40136(9)
C33 C 0.2945(6) 0.38370(18) 0.40684(9)
H19 H 0.2739 0.3796 0.4262
C34 C 0.2740(5) 0.36033(16) 0.38332(10)
H20 H 0.2396 0.3405 0.3870
C35 C 0.3048(4) 0.36652(11) 0.35432(8)
C36 C 0.3561(3) 0.39610(11) 0.34884(8)
C37 C 0.3869(5) 0.40229(16) 0.31984(10)
H21 H 0.4213 0.4221 0.3162
C38 C 0.3663(5) 0.37891(17) 0.29631(9)
H22 H 0.3870 0.3831 0.2769
C39 C 0.3150(5) 0.34934(16) 0.30179(9)
C40 C 0.2842(5) 0.34314(14) 0.33079(11)
H23 H 0.2498 0.3234 0.3345
C41 C 0.2882(7) 0.2891(2) 0.2740(2)
C42 C 0.2888(8) 0.3268(2) 0.27465(19)
C43 C 0.3741(11) 0.4381(3) 0.4271(3)
O12 O 0.4187(6) 0.46434(18) 0.41945(14)
O13 O 0.3488(7) 0.4310(2) 0.45384(16)
O14 O 0.3298(9) 0.2294(3) 0.20249(19)
H24 H 0.3652 0.2428 0.2098
C44 C 0.3767(5) 0.08052(14) 0.12764(11)
H25 H 0.4111 0.0607 0.1313
C45 C 0.3459(5) 0.08672(16) 0.09864(9)
C46 C 0.2945(6) 0.11630(18) 0.09316(9)
H26 H 0.2739 0.1204 0.0738
C47 C 0.2740(5) 0.13967(16) 0.11668(10)
H27 H 0.2396 0.1595 0.1130
C48 C 0.3048(4) 0.13348(11) 0.14568(8)
C49 C 0.3561(3) 0.10390(11) 0.15116(8)
C50 C 0.3869(5) 0.09771(16) 0.18016(10)
H28 H 0.4213 0.0779 0.1838
C51 C 0.3663(5) 0.12109(17) 0.20369(9)
H29 H 0.3870 0.1169 0.2231
C52 C 0.3150(5) 0.15066(16) 0.19821(9)
C53 C 0.2842(5) 0.15686(14) 0.16921(11)
H30 H 0.2498 0.1766 0.1655
C54 C 0.2882(7) 0.2109(2) 0.2260(2)
C55 C 0.2888(8) 0.1732(2) 0.22535(19)
C56 C 0.3741(11) 0.0619(3) 0.0729(3)
O15 O 0.4187(6) 0.03566(18) 0.08055(14)
O16 O 0.3488(7) 0.0690(2) 0.04616(16)
O19 O 0.0000 0.5497(3) 0.0274(3)
Zr4 Zr 0.11076(14) 0.54806(3) 0.0000
Zr6 Zr 0.11076(14) 0.04806(3) 0.5000
Zr7 Zr 0.38924(14) 0.45194(3) 0.5000
Zr8 Zr 0.38924(14) 0.04806(3) 0.0000
Zr9 Zr 0.0000 -0.0000 0.44457(4)
Zr10 Zr 0.5000 0.5000 0.44457(4)
Zr11 Zr 0.5000 -0.0000 0.05543(4)
O23 O 0.0813(6) 0.53566(18) 0.08055(14)
H31 H 0.133195 0.382816 0.0183842
H32 H 0.0456741 0.384433 2.59971e-18
H33 H 0.262904 0.450909 0.0211678
Zr1_2 Zr 0.11076(14) 0.45194(3) 1.0000
O3_2 O 0.2422(11) 0.4527(3) 1.0000
O6_2 O 0.1049(10) 0.3923(2) 1.0000
Zr4_2 Zr 0.11076(14) 0.54806(3) 1.0000
Zr8_2 Zr 0.38924(14) 0.04806(3) 1.0000
O24 O 0.1135(9) 0.5000 0.9725(2)
O26 O 0.0000 0.5497(3) 0.9726(3)
O27 O -0.0000 0.4503(3) 0.9726(3)
O30 O 0.1512(7) 0.4310(2) 0.95384(16)
H32_2 H 0.0456741 0.384433 1
H34 H 0.263489 0.431909 0.988029
Zr9_2 Zr 0.0000 1.0000 0.44457(4)
Zr11_2 Zr 0.5000 1.0000 0.05543(4)
Zr2_2 Zr 1.0000 0.5000 0.05543(4)
O5_2 O 1.0000 0.4503(3) 0.0274(3)
Zr3 Zr 0.88924(14) 0.54806(3) 0.0000
O17 O 0.7578(11) 0.5473(3) 0.0000
O18 O 0.8865(9) 0.5000 0.0275(2)
O19_2 O 1.0000 0.5497(3) 0.0274(3)
O20 O 0.8951(10) 0.6077(2) 0.0000
Zr5 Zr 0.88924(14) 0.45194(3) 0.0000
Zr9_3 Zr 1.0000 -0.0000 0.44457(4)
O21 O 0.9187(6) 0.53566(18) 0.08055(14)
O22 O 0.9187(6) 0.46434(18) 0.08055(14)
O28 O 0.8488(7) 0.5690(2) 0.04616(16)
H35 H 0.866805 0.617184 0.0183842
H36 H 0.954326 0.615567 2.59971e-18
H37 H 0.737096 0.549091 0.0211678
Zr3_2 Zr 0.88924(14) 0.54806(3) 1.0000
O17_2 O 0.7578(11) 0.5473(3) 1.0000
O20_2 O 0.8951(10) 0.6077(2) 1.0000
Zr5_2 Zr 0.88924(14) 0.45194(3) 1.0000
O25 O 0.8865(9) 0.5000 0.9725(2)
O26_2 O 1.0000 0.5497(3) 0.9726(3)
O27_2 O 1.0000 0.4503(3) 0.9726(3)
O29 O 0.8488(7) 0.5690(2) 0.95384(16)
H36_2 H 0.954326 0.615567 1
H38 H 0.736511 0.568091 0.988029
Zr9_4 Zr 1.0000 1.0000 0.44457(4)
O1_2 O 0.8298(9) 0.7294(3) 0.20249(19)
H1_2 H 0.8652 0.7428 0.2098
C1_2 C 0.7500 0.7296(3) 0.2500
C2_2 C 0.7500 0.6551(4) 0.2500
H2_2 H 0.7500 0.6300 0.2500
C3_2 C 0.8767(5) 0.58052(14) 0.12764(11)
H3_2 H 0.9111 0.5607 0.1313
C4_2 C 0.8459(5) 0.58672(16) 0.09864(9)
C5_2 C 0.7945(6) 0.61630(18) 0.09316(9)
H4_2 H 0.7739 0.6204 0.0738
C6_2 C 0.7740(5) 0.63967(16) 0.11668(10)
H5_2 H 0.7396 0.6595 0.1130
C7_2 C 0.8048(4) 0.63348(11) 0.14568(8)
C8_2 C 0.8561(3) 0.60390(11) 0.15116(8)
C9_2 C 0.8869(5) 0.59771(16) 0.18016(10)
H6_2 H 0.9213 0.5779 0.1838
C10_2 C 0.8663(5) 0.62109(17) 0.20369(9)
H7_2 H 0.8870 0.6169 0.2231
C11_2 C 0.8150(5) 0.65066(16) 0.19821(9)
C12_2 C 0.7842(5) 0.65686(14) 0.16921(11)
H8_2 H 0.7498 0.6766 0.1655
C13_2 C 0.7882(7) 0.7109(2) 0.2260(2)
C14_2 C 0.7888(8) 0.6732(2) 0.22535(19)
C15_2 C 0.8741(11) 0.5619(3) 0.0729(3)
O8_2 O 0.8298(9) 0.7706(3) 0.29751(19)
H9_2 H 0.8652 0.7572 0.2902
C16_2 C 0.7500 0.7704(3) 0.2500
C17_2 C 0.7500 0.8449(4) 0.2500
H10_2 H 0.7500 0.8700 0.2500
C18_2 C 0.8767(5) 0.91948(14) 0.37236(11)
H11_2 H 0.9111 0.9393 0.3687
C19_2 C 0.8459(5) 0.91328(16) 0.40136(9)
C20_2 C 0.7945(6) 0.88370(18) 0.40684(9)
H12_2 H 0.7739 0.8796 0.4262
C21_2 C 0.7740(5) 0.86033(16) 0.38332(10)
H13_2 H 0.7396 0.8405 0.3870
C22_2 C 0.8048(4) 0.86652(11) 0.35432(8)
C23_2 C 0.8561(3) 0.89610(11) 0.34884(8)
C24_2 C 0.8869(5) 0.90229(16) 0.31984(10)
H14_2 H 0.9213 0.9221 0.3162
C25_2 C 0.8663(5) 0.87891(17) 0.29631(9)
H15_2 H 0.8870 0.8831 0.2769
C26_2 C 0.8150(5) 0.84934(16) 0.30179(9)
C27_2 C 0.7842(5) 0.84314(14) 0.33079(11)
H16_2 H 0.7498 0.8234 0.3345
C28_2 C 0.7882(7) 0.7891(2) 0.2740(2)
C29_2 C 0.7888(8) 0.8268(2) 0.27465(19)
C30_2 C 0.8741(11) 0.9381(3) 0.4271(3)
O9_2 O 0.9187(6) 0.96434(18) 0.41945(14)
O10_2 O 0.8488(7) 0.9310(2) 0.45384(16)
O11_2 O 0.6702(9) 0.7294(3) 0.29751(19)
H17_2 H 0.6348 0.7428 0.2902
C31_2 C 0.6233(5) 0.58052(14) 0.37236(11)
H18_2 H 0.5889 0.5607 0.3687
C32_2 C 0.6541(5) 0.58672(16) 0.40136(9)
C33_2 C 0.7055(6) 0.61630(18) 0.40684(9)
H19_2 H 0.7261 0.6204 0.4262
C34_2 C 0.7260(5) 0.63967(16) 0.38332(10)
H20_2 H 0.7604 0.6595 0.3870
C35_2 C 0.6952(4) 0.63348(11) 0.35432(8)
C36_2 C 0.6439(3) 0.60390(11) 0.34884(8)
C37_2 C 0.6131(5) 0.59771(16) 0.31984(10)
H21_2 H 0.5787 0.5779 0.3162
C38_2 C 0.6337(5) 0.62109(17) 0.29631(9)
H22_2 H 0.6130 0.6169 0.2769
C39_2 C 0.6850(5) 0.65066(16) 0.30179(9)
C40_2 C 0.7158(5) 0.65686(14) 0.33079(11)
H23_2 H 0.7502 0.6766 0.3345
C41_2 C 0.7118(7) 0.7109(2) 0.2740(2)
C42_2 C 0.7112(8) 0.6732(2) 0.27465(19)
C43_2 C 0.6259(11) 0.5619(3) 0.4271(3)
O12_2 O 0.5813(6) 0.53566(18) 0.41945(14)
O13_2 O 0.6512(7) 0.5690(2) 0.45384(16)
O14_2 O 0.6702(9) 0.7706(3) 0.20249(19)
H24_2 H 0.6348 0.7572 0.2098
C44_2 C 0.6233(5) 0.91948(14) 0.12764(11)
H25_2 H 0.5889 0.9393 0.1313
C45_2 C 0.6541(5) 0.91328(16) 0.09864(9)
C46_2 C 0.7055(6) 0.88370(18) 0.09316(9)
H26_2 H 0.7261 0.8796 0.0738
C47_2 C 0.7260(5) 0.86033(16) 0.11668(10)
H27_2 H 0.7604 0.8405 0.1130
C48_2 C 0.6952(4) 0.86652(11) 0.14568(8)
C49_2 C 0.6439(3) 0.89610(11) 0.15116(8)
C50_2 C 0.6131(5) 0.90229(16) 0.18016(10)
H28_2 H 0.5787 0.9221 0.1838
C51_2 C 0.6337(5) 0.87891(17) 0.20369(9)
H29_2 H 0.6130 0.8831 0.2231
C52_2 C 0.6850(5) 0.84934(16) 0.19821(9)
C53_2 C 0.7158(5) 0.84314(14) 0.16921(11)
H30_2 H 0.7502 0.8234 0.1655
C54_2 C 0.7118(7) 0.7891(2) 0.2260(2)
C55_2 C 0.7112(8) 0.8268(2) 0.22535(19)
C56_2 C 0.6259(11) 0.9381(3) 0.0729(3)
O15_2 O 0.5813(6) 0.96434(18) 0.08055(14)
O16_2 O 0.6512(7) 0.9310(2) 0.04616(16)
Zr6_2 Zr 0.88924(14) 0.95194(3) 0.5000
Zr7_2 Zr 0.61076(14) 0.54806(3) 0.5000
Zr8_3 Zr 0.61076(14) 0.95194(3) 0.0000
Zr8_4 Zr 0.61076(14) 0.95194(3) 1.0000
Zr9_5 Zr -0.0000 0.0000 0.55543(4)
Zr11_3 Zr 0.5000 -0.0000 0.94457(4)
O3_3 O 0.2422(11) 0.5473(3) 0.0000
O6_3 O 0.1049(10) 0.6077(2) 0.0000
Zr8_5 Zr 0.38924(14) 0.95194(3) 0.0000
O30_2 O 0.1512(7) 0.5690(2) 0.04616(16)
H32_3 H 0.0456741 0.615567 -2.59971e-18
H34_2 H 0.263489 0.568091 0.0119711
Zr2_3 Zr 0.0000 0.5000 0.94457(4)
O1_3 O 0.1702(9) 0.7294(3) 0.79751(19)
H1_3 H 0.1348 0.7428 0.7902
C1_3 C 0.2500 0.7296(3) 0.7500
C2_3 C 0.2500 0.6551(4) 0.7500
H2_3 H 0.2500 0.6300 0.7500
C3_3 C 0.1233(5) 0.58052(14) 0.87236(11)
H3_3 H 0.0889 0.5607 0.8687
C4_3 C 0.1541(5) 0.58672(16) 0.90136(9)
C5_3 C 0.2055(6) 0.61630(18) 0.90684(9)
H4_3 H 0.2261 0.6204 0.9262
C6_3 C 0.2260(5) 0.63967(16) 0.88332(10)
H5_3 H 0.2604 0.6595 0.8870
C7_3 C 0.1952(4) 0.63348(11) 0.85432(8)
C8_3 C 0.1439(3) 0.60390(11) 0.84884(8)
C9_3 C 0.1131(5) 0.59771(16) 0.81984(10)
H6_3 H 0.0787 0.5779 0.8162
C10_3 C 0.1337(5) 0.62109(17) 0.79631(9)
H7_3 H 0.1130 0.6169 0.7769
C11_3 C 0.1850(5) 0.65066(16) 0.80179(9)
C12_3 C 0.2158(5) 0.65686(14) 0.83079(11)
H8_3 H 0.2502 0.6766 0.8345
C13_3 C 0.2118(7) 0.7109(2) 0.7740(2)
C14_3 C 0.2112(8) 0.6732(2) 0.77465(19)
C15_3 C 0.1259(11) 0.5619(3) 0.9271(3)
O2_2 O 0.0813(6) 0.53566(18) 0.91945(14)
O3_4 O 0.2422(11) 0.5473(3) 1.0000
O6_4 O 0.1049(10) 0.6077(2) 1.0000
O7_2 O 0.1512(7) 0.5690(2) 0.95384(16)
O8_3 O 0.1702(9) 0.7706(3) 0.70249(19)
H9_3 H 0.1348 0.7572 0.7098
C16_3 C 0.2500 0.7704(3) 0.7500
C17_3 C 0.2500 0.8449(4) 0.7500
H10_3 H 0.2500 0.8700 0.7500
C18_3 C 0.1233(5) 0.91948(14) 0.62764(11)
H11_3 H 0.0889 0.9393 0.6313
C19_3 C 0.1541(5) 0.91328(16) 0.59864(9)
C20_3 C 0.2055(6) 0.88370(18) 0.59316(9)
H12_3 H 0.2261 0.8796 0.5738
C21_3 C 0.2260(5) 0.86033(16) 0.61668(10)
H13_3 H 0.2604 0.8405 0.6130
C22_3 C 0.1952(4) 0.86652(11) 0.64568(8)
C23_3 C 0.1439(3) 0.89610(11) 0.65116(8)
C24_3 C 0.1131(5) 0.90229(16) 0.68016(10)
H14_3 H 0.0787 0.9221 0.6838
C25_3 C 0.1337(5) 0.87891(17) 0.70369(9)
H15_3 H 0.1130 0.8831 0.7231
C26_3 C 0.1850(5) 0.84934(16) 0.69821(9)
C27_3 C 0.2158(5) 0.84314(14) 0.66921(11)
H16_3 H 0.2502 0.8234 0.6655
C28_3 C 0.2118(7) 0.7891(2) 0.7260(2)
C29_3 C 0.2112(8) 0.8268(2) 0.72535(19)
C30_3 C 0.1259(11) 0.9381(3) 0.5729(3)
O9_3 O 0.0813(6) 0.96434(18) 0.58055(14)
O10_3 O 0.1512(7) 0.9310(2) 0.54616(16)
O11_3 O 0.3298(9) 0.7294(3) 0.70249(19)
H17_3 H 0.3652 0.7428 0.7098
C31_3 C 0.3767(5) 0.58052(14) 0.62764(11)
H18_3 H 0.4111 0.5607 0.6313
C32_3 C 0.3459(5) 0.58672(16) 0.59864(9)
C33_3 C 0.2945(6) 0.61630(18) 0.59316(9)
H19_3 H 0.2739 0.6204 0.5738
C34_3 C 0.2740(5) 0.63967(16) 0.61668(10)
H20_3 H 0.2396 0.6595 0.6130
C35_3 C 0.3048(4) 0.63348(11) 0.64568(8)
C36_3 C 0.3561(3) 0.60390(11) 0.65116(8)
C37_3 C 0.3869(5) 0.59771(16) 0.68016(10)
H21_3 H 0.4213 0.5779 0.6838
C38_3 C 0.3663(5) 0.62109(17) 0.70369(9)
H22_3 H 0.3870 0.6169 0.7231
C39_3 C 0.3150(5) 0.65066(16) 0.69821(9)
C40_3 C 0.2842(5) 0.65686(14) 0.66921(11)
H23_3 H 0.2498 0.6766 0.6655
C41_3 C 0.2882(7) 0.7109(2) 0.7260(2)
C42_3 C 0.2888(8) 0.6732(2) 0.72535(19)
C43_3 C 0.3741(11) 0.5619(3) 0.5729(3)
O12_3 O 0.4187(6) 0.53566(18) 0.58055(14)
O13_3 O 0.3488(7) 0.5690(2) 0.54616(16)
O14_3 O 0.3298(9) 0.7706(3) 0.79751(19)
H24_3 H 0.3652 0.7572 0.7902
C44_3 C 0.3767(5) 0.91948(14) 0.87236(11)
H25_3 H 0.4111 0.9393 0.8687
C45_3 C 0.3459(5) 0.91328(16) 0.90136(9)
C46_3 C 0.2945(6) 0.88370(18) 0.90684(9)
H26_3 H 0.2739 0.8796 0.9262
C47_3 C 0.2740(5) 0.86033(16) 0.88332(10)
H27_3 H 0.2396 0.8405 0.8870
C48_3 C 0.3048(4) 0.86652(11) 0.85432(8)
C49_3 C 0.3561(3) 0.89610(11) 0.84884(8)
C50_3 C 0.3869(5) 0.90229(16) 0.81984(10)
H28_3 H 0.4213 0.9221 0.8162
C51_3 C 0.3663(5) 0.87891(17) 0.79631(9)
H29_3 H 0.3870 0.8831 0.7769
C52_3 C 0.3150(5) 0.84934(16) 0.80179(9)
C53_3 C 0.2842(5) 0.84314(14) 0.83079(11)
H30_3 H 0.2498 0.8234 0.8345
C54_3 C 0.2882(7) 0.7891(2) 0.7740(2)
C55_3 C 0.2888(8) 0.8268(2) 0.77465(19)
C56_3 C 0.3741(11) 0.9381(3) 0.9271(3)
O15_3 O 0.4187(6) 0.96434(18) 0.91945(14)
O16_3 O 0.3488(7) 0.9310(2) 0.95384(16)
Zr6_3 Zr 0.11076(14) 0.95194(3) 0.5000
Zr7_3 Zr 0.38924(14) 0.54806(3) 0.5000
Zr8_6 Zr 0.38924(14) 0.95194(3) 1.0000
Zr9_6 Zr 0.0000 1.0000 0.55543(4)
Zr10_2 Zr 0.5000 0.5000 0.55543(4)
Zr11_4 Zr 0.5000 1.0000 0.94457(4)
O23_2 O 0.0813(6) 0.46434(18) 0.91945(14)
H31_2 H 0.133195 0.617184 0.981616
H32_4 H 0.0456741 0.615567 1
H33_2 H 0.262904 0.549091 0.978832
Zr9_7 Zr 1.0000 0.0000 0.55543(4)
O17_3 O 0.7578(11) 0.4527(3) 0.0000
O20_3 O 0.8951(10) 0.3923(2) 0.0000
O29_2 O 0.8488(7) 0.4310(2) 0.04616(16)
H36_3 H 0.954326 0.384433 -2.59971e-18
H38_2 H 0.736511 0.431909 0.0119711
Zr2_4 Zr 1.0000 0.5000 0.94457(4)
O17_4 O 0.7578(11) 0.4527(3) 1.0000
O20_4 O 0.8951(10) 0.3923(2) 1.0000
Zr9_8 Zr 1.0000 1.0000 0.55543(4)
O21_2 O 0.9187(6) 0.46434(18) 0.91945(14)
O22_2 O 0.9187(6) 0.53566(18) 0.91945(14)
O28_2 O 0.8488(7) 0.4310(2) 0.95384(16)
H35_2 H 0.866805 0.382816 0.981616
H36_4 H 0.954326 0.384433 1
H37_2 H 0.737096 0.450909 0.978832
Zr8_7 Zr 0.61076(14) 0.04806(3) 0.0000
O1_4 O 0.8298(9) 0.2706(3) 0.79751(19)
H1_4 H 0.8652 0.2572 0.7902
C1_4 C 0.7500 0.2704(3) 0.7500
C2_4 C 0.7500 0.3449(4) 0.7500
H2_4 H 0.7500 0.3700 0.7500
C3_4 C 0.8767(5) 0.41948(14) 0.87236(11)
H3_4 H 0.9111 0.4393 0.8687
C4_4 C 0.8459(5) 0.41328(16) 0.90136(9)
C5_4 C 0.7945(6) 0.38370(18) 0.90684(9)
H4_4 H 0.7739 0.3796 0.9262
C6_4 C 0.7740(5) 0.36033(16) 0.88332(10)
H5_4 H 0.7396 0.3405 0.8870
C7_4 C 0.8048(4) 0.36652(11) 0.85432(8)
C8_4 C 0.8561(3) 0.39610(11) 0.84884(8)
C9_4 C 0.8869(5) 0.40229(16) 0.81984(10)
H6_4 H 0.9213 0.4221 0.8162
C10_4 C 0.8663(5) 0.37891(17) 0.79631(9)
H7_4 H 0.8870 0.3831 0.7769
C11_4 C 0.8150(5) 0.34934(16) 0.80179(9)
C12_4 C 0.7842(5) 0.34314(14) 0.83079(11)
H8_4 H 0.7498 0.3234 0.8345
C13_4 C 0.7882(7) 0.2891(2) 0.7740(2)
C14_4 C 0.7888(8) 0.3268(2) 0.77465(19)
C15_4 C 0.8741(11) 0.4381(3) 0.9271(3)
O8_4 O 0.8298(9) 0.2294(3) 0.70249(19)
H9_4 H 0.8652 0.2428 0.7098
C16_4 C 0.7500 0.2296(3) 0.7500
C17_4 C 0.7500 0.1551(4) 0.7500
H10_4 H 0.7500 0.1300 0.7500
C18_4 C 0.8767(5) 0.08052(14) 0.62764(11)
H11_4 H 0.9111 0.0607 0.6313
C19_4 C 0.8459(5) 0.08672(16) 0.59864(9)
C20_4 C 0.7945(6) 0.11630(18) 0.59316(9)
H12_4 H 0.7739 0.1204 0.5738
C21_4 C 0.7740(5) 0.13967(16) 0.61668(10)
H13_4 H 0.7396 0.1595 0.6130
C22_4 C 0.8048(4) 0.13348(11) 0.64568(8)
C23_4 C 0.8561(3) 0.10390(11) 0.65116(8)
C24_4 C 0.8869(5) 0.09771(16) 0.68016(10)
H14_4 H 0.9213 0.0779 0.6838
C25_4 C 0.8663(5) 0.12109(17) 0.70369(9)
H15_4 H 0.8870 0.1169 0.7231
C26_4 C 0.8150(5) 0.15066(16) 0.69821(9)
C27_4 C 0.7842(5) 0.15686(14) 0.66921(11)
H16_4 H 0.7498 0.1766 0.6655
C28_4 C 0.7882(7) 0.2109(2) 0.7260(2)
C29_4 C 0.7888(8) 0.1732(2) 0.72535(19)
C30_4 C 0.8741(11) 0.0619(3) 0.5729(3)
O9_4 O 0.9187(6) 0.03566(18) 0.58055(14)
O10_4 O 0.8488(7) 0.0690(2) 0.54616(16)
O11_4 O 0.6702(9) 0.2706(3) 0.70249(19)
H17_4 H 0.6348 0.2572 0.7098
C31_4 C 0.6233(5) 0.41948(14) 0.62764(11)
H18_4 H 0.5889 0.4393 0.6313
C32_4 C 0.6541(5) 0.41328(16) 0.59864(9)
C33_4 C 0.7055(6) 0.38370(18) 0.59316(9)
H19_4 H 0.7261 0.3796 0.5738
C34_4 C 0.7260(5) 0.36033(16) 0.61668(10)
H20_4 H 0.7604 0.3405 0.6130
C35_4 C 0.6952(4) 0.36652(11) 0.64568(8)
C36_4 C 0.6439(3) 0.39610(11) 0.65116(8)
C37_4 C 0.6131(5) 0.40229(16) 0.68016(10)
H21_4 H 0.5787 0.4221 0.6838
C38_4 C 0.6337(5) 0.37891(17) 0.70369(9)
H22_4 H 0.6130 0.3831 0.7231
C39_4 C 0.6850(5) 0.34934(16) 0.69821(9)
C40_4 C 0.7158(5) 0.34314(14) 0.66921(11)
H23_4 H 0.7502 0.3234 0.6655
C41_4 C 0.7118(7) 0.2891(2) 0.7260(2)
C42_4 C 0.7112(8) 0.3268(2) 0.72535(19)
C43_4 C 0.6259(11) 0.4381(3) 0.5729(3)
O12_4 O 0.5813(6) 0.46434(18) 0.58055(14)
O13_4 O 0.6512(7) 0.4310(2) 0.54616(16)
O14_4 O 0.6702(9) 0.2294(3) 0.79751(19)
H24_4 H 0.6348 0.2428 0.7902
C44_4 C 0.6233(5) 0.08052(14) 0.87236(11)
H25_4 H 0.5889 0.0607 0.8687
C45_4 C 0.6541(5) 0.08672(16) 0.90136(9)
C46_4 C 0.7055(6) 0.11630(18) 0.90684(9)
H26_4 H 0.7261 0.1204 0.9262
C47_4 C 0.7260(5) 0.13967(16) 0.88332(10)
H27_4 H 0.7604 0.1595 0.8870
C48_4 C 0.6952(4) 0.13348(11) 0.85432(8)
C49_4 C 0.6439(3) 0.10390(11) 0.84884(8)
C50_4 C 0.6131(5) 0.09771(16) 0.81984(10)
H28_4 H 0.5787 0.0779 0.8162
C51_4 C 0.6337(5) 0.12109(17) 0.79631(9)
H29_4 H 0.6130 0.1169 0.7769
C52_4 C 0.6850(5) 0.15066(16) 0.80179(9)
C53_4 C 0.7158(5) 0.15686(14) 0.83079(11)
H30_4 H 0.7502 0.1766 0.8345
C54_4 C 0.7118(7) 0.2109(2) 0.7740(2)
C55_4 C 0.7112(8) 0.1732(2) 0.77465(19)
C56_4 C 0.6259(11) 0.0619(3) 0.9271(3)
O15_4 O 0.5813(6) 0.03566(18) 0.91945(14)
O16_4 O 0.6512(7) 0.0690(2) 0.95384(16)
Zr6_4 Zr 0.88924(14) 0.04806(3) 0.5000
Zr7_4 Zr 0.61076(14) 0.45194(3) 0.5000
Zr8_8 Zr 0.61076(14) 0.04806(3) 1.0000
O4_2 O 0.1135(9) -0.0000 0.5275(2)
O19_3 O 0.0000 0.0497(3) 0.5274(3)
O23_3 O 0.0813(6) 0.03566(18) 0.58055(14)
O24_2 O 0.1135(9) -0.0000 0.4725(2)
O26_3 O 0.0000 0.0497(3) 0.4726(3)
O3_5 O 0.2422(11) 0.9527(3) 0.5000
O4_3 O 0.1135(9) 1.0000 0.5275(2)
O5_3 O 0.0000 0.9503(3) 0.5274(3)
O6_5 O 0.1049(10) 0.8923(2) 0.5000
O24_3 O 0.1135(9) 1.0000 0.4725(2)
O27_3 O 0.0000 0.9503(3) 0.4726(3)
O30_3 O 0.1512(7) 0.9310(2) 0.45384(16)
O17_5 O 0.7578(11) 0.0473(3) 0.5000
O18_2 O 0.8865(9) -0.0000 0.5275(2)
O19_4 O 1.0000 0.0497(3) 0.5274(3)
O20_5 O 0.8951(10) 0.1077(2) 0.5000
O25_2 O 0.8865(9) -0.0000 0.4725(2)
O26_4 O 1.0000 0.0497(3) 0.4726(3)
O29_3 O 0.8488(7) 0.0690(2) 0.45384(16)
O5_4 O 1.0000 0.9503(3) 0.5274(3)
O18_3 O 0.8865(9) 1.0000 0.5275(2)
O22_3 O 0.9187(6) 0.96434(18) 0.58055(14)
O25_3 O 0.8865(9) 1.0000 0.4725(2)
O27_4 O 1.0000 0.9503(3) 0.4726(3)
O3_6 O 0.2422(11) 0.0473(3) 0.5000
O6_6 O 0.1049(10) 0.1077(2) 0.5000
O30_4 O 0.1512(7) 0.0690(2) 0.54616(16)
O23_4 O 0.0813(6) 0.96434(18) 0.41945(14)
O22_4 O 0.9187(6) 0.03566(18) 0.41945(14)
O17_6 O 0.7578(11) 0.9527(3) 0.5000
O20_6 O 0.8951(10) 0.8923(2) 0.5000
O29_4 O 0.8488(7) 0.9310(2) 0.54616(16)
O3_7 O 0.7422(11) 0.4527(3) 0.5000
O4_4 O 0.6135(9) 0.5000 0.5275(2)
O5_5 O 0.5000 0.4503(3) 0.5274(3)
O6_7 O 0.6049(10) 0.3923(2) 0.5000
O17_7 O 0.2578(11) 0.5473(3) 0.5000
O18_4 O 0.3865(9) 0.5000 0.5275(2)
O19_5 O 0.5000 0.5497(3) 0.5274(3)
O20_7 O 0.3951(10) 0.6077(2) 0.5000
O22_5 O 0.4187(6) 0.46434(18) 0.58055(14)
O23_5 O 0.5813(6) 0.53566(18) 0.58055(14)
O24_4 O 0.6135(9) 0.5000 0.4725(2)
O25_4 O 0.3865(9) 0.5000 0.4725(2)
O26_5 O 0.5000 0.5497(3) 0.4726(3)
O27_5 O 0.5000 0.4503(3) 0.4726(3)
O29_5 O 0.3488(7) 0.5690(2) 0.45384(16)
O30_5 O 0.6512(7) 0.4310(2) 0.45384(16)
O3_8 O 0.7422(11) 0.5473(3) 0.5000
O6_8 O 0.6049(10) 0.6077(2) 0.5000
O17_8 O 0.2578(11) 0.4527(3) 0.5000
O20_8 O 0.3951(10) 0.3923(2) 0.5000
O22_6 O 0.4187(6) 0.53566(18) 0.41945(14)
O23_6 O 0.5813(6) 0.46434(18) 0.41945(14)
O29_6 O 0.3488(7) 0.4310(2) 0.54616(16)
O30_6 O 0.6512(7) 0.5690(2) 0.54616(16)
O4_5 O 0.6135(9) -0.0000 0.0275(2)
O17_9 O 0.2578(11) 0.0473(3) 0.0000
O18_5 O 0.3865(9) -0.0000 0.0275(2)
O19_6 O 0.5000 0.0497(3) 0.0274(3)
O20_9 O 0.3951(10) 0.1077(2) 0.0000
O23_7 O 0.5813(6) 0.03566(18) 0.08055(14)
H35_3 H 0.366805 0.117184 0.0183842
H36_5 H 0.454326 0.115567 2.59971e-18
H37_3 H 0.237096 0.0490912 0.0211678
O17_10 O 0.2578(11) 0.0473(3) 1.0000
O20_10 O 0.3951(10) 0.1077(2) 1.0000
O24_5 O 0.6135(9) -0.0000 0.9725(2)
O25_5 O 0.3865(9) -0.0000 0.9725(2)
O26_6 O 0.5000 0.0497(3) 0.9726(3)
O29_7 O 0.3488(7) 0.0690(2) 0.95384(16)
H36_6 H 0.454326 0.115567 1
H38_3 H 0.236511 0.0680911 0.988029
O3_9 O 0.7422(11) 0.9527(3) 0.0000
O4_6 O 0.6135(9) 1.0000 0.0275(2)
O5_6 O 0.5000 0.9503(3) 0.0274(3)
O6_9 O 0.6049(10) 0.8923(2) 0.0000
O18_6 O 0.3865(9) 1.0000 0.0275(2)
O22_7 O 0.4187(6) 0.96434(18) 0.08055(14)
H31_3 H 0.633195 0.882816 0.0183842
H32_5 H 0.545674 0.884433 2.59971e-18
H33_3 H 0.762904 0.950909 0.0211678
O3_10 O 0.7422(11) 0.9527(3) 1.0000
O6_10 O 0.6049(10) 0.8923(2) 1.0000
O24_6 O 0.6135(9) 1.0000 0.9725(2)
O25_6 O 0.3865(9) 1.0000 0.9725(2)
O27_6 O 0.5000 0.9503(3) 0.9726(3)
O30_7 O 0.6512(7) 0.9310(2) 0.95384(16)
H32_6 H 0.545674 0.884433 1
H34_3 H 0.763489 0.931909 0.988029
O3_11 O 0.7422(11) 0.0473(3) 0.0000
O6_11 O 0.6049(10) 0.1077(2) 0.0000
O30_8 O 0.6512(7) 0.0690(2) 0.04616(16)
H32_7 H 0.545674 0.115567 -2.59971e-18
H34_4 H 0.763489 0.0680911 0.0119711
O3_12 O 0.7422(11) 0.0473(3) 1.0000
O6_12 O 0.6049(10) 0.1077(2) 1.0000
O22_8 O 0.4187(6) 0.03566(18) 0.91945(14)
H31_4 H 0.633195 0.117184 0.981616
H32_8 H 0.545674 0.115567 1
H33_4 H 0.762904 0.0490912 0.978832
O17_11 O 0.2578(11) 0.9527(3) 0.0000
O20_11 O 0.3951(10) 0.8923(2) 0.0000
O29_8 O 0.3488(7) 0.9310(2) 0.04616(16)
H36_7 H 0.454326 0.884433 -2.59971e-18
H38_4 H 0.236511 0.931909 0.0119711
O17_12 O 0.2578(11) 0.9527(3) 1.0000
O20_12 O 0.3951(10) 0.8923(2) 1.0000
O23_8 O 0.5813(6) 0.96434(18) 0.91945(14)
H35_4 H 0.366805 0.882816 0.981616
H36_8 H 0.454326 0.884433 1
H37_4 H 0.237096 0.950909 0.978832
H38_5 H 0.263489 0.431909 0.0119711
H35_5 H 0.133195 0.382816 0.981616
H37_5 H 0.262904 0.450909 0.978832
H34_5 H 0.736511 0.568091 0.0119711
O1_5 O 0.8298(9) 0.7294(3) 0.79751(19)
H1_5 H 0.8652 0.7428 0.7902
C1_5 C 0.7500 0.7296(3) 0.7500
C2_5 C 0.7500 0.6551(4) 0.7500
H2_5 H 0.7500 0.6300 0.7500
C3_5 C 0.8767(5) 0.58052(14) 0.87236(11)
H3_5 H 0.9111 0.5607 0.8687
C4_5 C 0.8459(5) 0.58672(16) 0.90136(9)
C5_5 C 0.7945(6) 0.61630(18) 0.90684(9)
H4_5 H 0.7739 0.6204 0.9262
C6_5 C 0.7740(5) 0.63967(16) 0.88332(10)
H5_5 H 0.7396 0.6595 0.8870
C7_5 C 0.8048(4) 0.63348(11) 0.85432(8)
C8_5 C 0.8561(3) 0.60390(11) 0.84884(8)
C9_5 C 0.8869(5) 0.59771(16) 0.81984(10)
H6_5 H 0.9213 0.5779 0.8162
C10_5 C 0.8663(5) 0.62109(17) 0.79631(9)
H7_5 H 0.8870 0.6169 0.7769
C11_5 C 0.8150(5) 0.65066(16) 0.80179(9)
C12_5 C 0.7842(5) 0.65686(14) 0.83079(11)
H8_5 H 0.7498 0.6766 0.8345
C13_5 C 0.7882(7) 0.7109(2) 0.7740(2)
C14_5 C 0.7888(8) 0.6732(2) 0.77465(19)
C15_5 C 0.8741(11) 0.5619(3) 0.9271(3)
O8_5 O 0.8298(9) 0.7706(3) 0.70249(19)
H9_5 H 0.8652 0.7572 0.7098
C16_5 C 0.7500 0.7704(3) 0.7500
C17_5 C 0.7500 0.8449(4) 0.7500
H10_5 H 0.7500 0.8700 0.7500
C18_5 C 0.8767(5) 0.91948(14) 0.62764(11)
H11_5 H 0.9111 0.9393 0.6313
C19_5 C 0.8459(5) 0.91328(16) 0.59864(9)
C20_5 C 0.7945(6) 0.88370(18) 0.59316(9)
H12_5 H 0.7739 0.8796 0.5738
C21_5 C 0.7740(5) 0.86033(16) 0.61668(10)
H13_5 H 0.7396 0.8405 0.6130
C22_5 C 0.8048(4) 0.86652(11) 0.64568(8)
C23_5 C 0.8561(3) 0.89610(11) 0.65116(8)
C24_5 C 0.8869(5) 0.90229(16) 0.68016(10)
H14_5 H 0.9213 0.9221 0.6838
C25_5 C 0.8663(5) 0.87891(17) 0.70369(9)
H15_5 H 0.8870 0.8831 0.7231
C26_5 C 0.8150(5) 0.84934(16) 0.69821(9)
C27_5 C 0.7842(5) 0.84314(14) 0.66921(11)
H16_5 H 0.7498 0.8234 0.6655
C28_5 C 0.7882(7) 0.7891(2) 0.7260(2)
C29_5 C 0.7888(8) 0.8268(2) 0.72535(19)
C30_5 C 0.8741(11) 0.9381(3) 0.5729(3)
O11_5 O 0.6702(9) 0.7294(3) 0.70249(19)
H17_5 H 0.6348 0.7428 0.7098
C31_5 C 0.6233(5) 0.58052(14) 0.62764(11)
H18_5 H 0.5889 0.5607 0.6313
C32_5 C 0.6541(5) 0.58672(16) 0.59864(9)
C33_5 C 0.7055(6) 0.61630(18) 0.59316(9)
H19_5 H 0.7261 0.6204 0.5738
C34_5 C 0.7260(5) 0.63967(16) 0.61668(10)
H20_5 H 0.7604 0.6595 0.6130
C35_5 C 0.6952(4) 0.63348(11) 0.64568(8)
C36_5 C 0.6439(3) 0.60390(11) 0.65116(8)
C37_5 C 0.6131(5) 0.59771(16) 0.68016(10)
H21_5 H 0.5787 0.5779 0.6838
C38_5 C 0.6337(5) 0.62109(17) 0.70369(9)
H22_5 H 0.6130 0.6169 0.7231
C39_5 C 0.6850(5) 0.65066(16) 0.69821(9)
C40_5 C 0.7158(5) 0.65686(14) 0.66921(11)
H23_5 H 0.7502 0.6766 0.6655
C41_5 C 0.7118(7) 0.7109(2) 0.7260(2)
C42_5 C 0.7112(8) 0.6732(2) 0.72535(19)
C43_5 C 0.6259(11) 0.5619(3) 0.5729(3)
O14_5 O 0.6702(9) 0.7706(3) 0.79751(19)
H24_5 H 0.6348 0.7572 0.7902
C44_5 C 0.6233(5) 0.91948(14) 0.87236(11)
H25_5 H 0.5889 0.9393 0.8687
C45_5 C 0.6541(5) 0.91328(16) 0.90136(9)
C46_5 C 0.7055(6) 0.88370(18) 0.90684(9)
H26_5 H 0.7261 0.8796 0.9262
C47_5 C 0.7260(5) 0.86033(16) 0.88332(10)
H27_5 H 0.7604 0.8405 0.8870
C48_5 C 0.6952(4) 0.86652(11) 0.85432(8)
C49_5 C 0.6439(3) 0.89610(11) 0.84884(8)
C50_5 C 0.6131(5) 0.90229(16) 0.81984(10)
H28_5 H 0.5787 0.9221 0.8162
C51_5 C 0.6337(5) 0.87891(17) 0.79631(9)
H29_5 H 0.6130 0.8831 0.7769
C52_5 C 0.6850(5) 0.84934(16) 0.80179(9)
C53_5 C 0.7158(5) 0.84314(14) 0.83079(11)
H30_5 H 0.7502 0.8234 0.8345
C54_5 C 0.7118(7) 0.7891(2) 0.7740(2)
C55_5 C 0.7112(8) 0.8268(2) 0.77465(19)
C56_5 C 0.6259(11) 0.9381(3) 0.9271(3)
H31_5 H 0.866805 0.617184 0.981616
H33_5 H 0.737096 0.549091 0.978832
O1_6 O 0.1702(9) 0.2706(3) 0.79751(19)
H1_6 H 0.1348 0.2572 0.7902
C1_6 C 0.2500 0.2704(3) 0.7500
C2_6 C 0.2500 0.3449(4) 0.7500
H2_6 H 0.2500 0.3700 0.7500
C3_6 C 0.1233(5) 0.41948(14) 0.87236(11)
H3_6 H 0.0889 0.4393 0.8687
C4_6 C 0.1541(5) 0.41328(16) 0.90136(9)
C5_6 C 0.2055(6) 0.38370(18) 0.90684(9)
H4_6 H 0.2261 0.3796 0.9262
C6_6 C 0.2260(5) 0.36033(16) 0.88332(10)
H5_6 H 0.2604 0.3405 0.8870
C7_6 C 0.1952(4) 0.36652(11) 0.85432(8)
C8_6 C 0.1439(3) 0.39610(11) 0.84884(8)
C9_6 C 0.1131(5) 0.40229(16) 0.81984(10)
H6_6 H 0.0787 0.4221 0.8162
C10_6 C 0.1337(5) 0.37891(17) 0.79631(9)
H7_6 H 0.1130 0.3831 0.7769
C11_6 C 0.1850(5) 0.34934(16) 0.80179(9)
C12_6 C 0.2158(5) 0.34314(14) 0.83079(11)
H8_6 H 0.2502 0.3234 0.8345
C13_6 C 0.2118(7) 0.2891(2) 0.7740(2)
C14_6 C 0.2112(8) 0.3268(2) 0.77465(19)
C15_6 C 0.1259(11) 0.4381(3) 0.9271(3)
O8_6 O 0.1702(9) 0.2294(3) 0.70249(19)
H9_6 H 0.1348 0.2428 0.7098
C16_6 C 0.2500 0.2296(3) 0.7500
C17_6 C 0.2500 0.1551(4) 0.7500
H10_6 H 0.2500 0.1300 0.7500
C18_6 C 0.1233(5) 0.08052(14) 0.62764(11)
H11_6 H 0.0889 0.0607 0.6313
C19_6 C 0.1541(5) 0.08672(16) 0.59864(9)
C20_6 C 0.2055(6) 0.11630(18) 0.59316(9)
H12_6 H 0.2261 0.1204 0.5738
C21_6 C 0.2260(5) 0.13967(16) 0.61668(10)
H13_6 H 0.2604 0.1595 0.6130
C22_6 C 0.1952(4) 0.13348(11) 0.64568(8)
C23_6 C 0.1439(3) 0.10390(11) 0.65116(8)
C24_6 C 0.1131(5) 0.09771(16) 0.68016(10)
H14_6 H 0.0787 0.0779 0.6838
C25_6 C 0.1337(5) 0.12109(17) 0.70369(9)
H15_6 H 0.1130 0.1169 0.7231
C26_6 C 0.1850(5) 0.15066(16) 0.69821(9)
C27_6 C 0.2158(5) 0.15686(14) 0.66921(11)
H16_6 H 0.2502 0.1766 0.6655
C28_6 C 0.2118(7) 0.2109(2) 0.7260(2)
C29_6 C 0.2112(8) 0.1732(2) 0.72535(19)
C30_6 C 0.1259(11) 0.0619(3) 0.5729(3)
O11_6 O 0.3298(9) 0.2706(3) 0.70249(19)
H17_6 H 0.3652 0.2572 0.7098
C31_6 C 0.3767(5) 0.41948(14) 0.62764(11)
H18_6 H 0.4111 0.4393 0.6313
C32_6 C 0.3459(5) 0.41328(16) 0.59864(9)
C33_6 C 0.2945(6) 0.38370(18) 0.59316(9)
H19_6 H 0.2739 0.3796 0.5738
C34_6 C 0.2740(5) 0.36033(16) 0.61668(10)
H20_6 H 0.2396 0.3405 0.6130
C35_6 C 0.3048(4) 0.36652(11) 0.64568(8)
C36_6 C 0.3561(3) 0.39610(11) 0.65116(8)
C37_6 C 0.3869(5) 0.40229(16) 0.68016(10)
H21_6 H 0.4213 0.4221 0.6838
C38_6 C 0.3663(5) 0.37891(17) 0.70369(9)
H22_6 H 0.3870 0.3831 0.7231
C39_6 C 0.3150(5) 0.34934(16) 0.69821(9)
C40_6 C 0.2842(5) 0.34314(14) 0.66921(11)
H23_6 H 0.2498 0.3234 0.6655
C41_6 C 0.2882(7) 0.2891(2) 0.7260(2)
C42_6 C 0.2888(8) 0.3268(2) 0.72535(19)
C43_6 C 0.3741(11) 0.4381(3) 0.5729(3)
O14_6 O 0.3298(9) 0.2294(3) 0.79751(19)
H24_6 H 0.3652 0.2428 0.7902
C44_6 C 0.3767(5) 0.08052(14) 0.87236(11)
H25_6 H 0.4111 0.0607 0.8687
C45_6 C 0.3459(5) 0.08672(16) 0.90136(9)
C46_6 C 0.2945(6) 0.11630(18) 0.90684(9)
H26_6 H 0.2739 0.1204 0.9262
C47_6 C 0.2740(5) 0.13967(16) 0.88332(10)
H27_6 H 0.2396 0.1595 0.8870
C48_6 C 0.3048(4) 0.13348(11) 0.85432(8)
C49_6 C 0.3561(3) 0.10390(11) 0.84884(8)
C50_6 C 0.3869(5) 0.09771(16) 0.81984(10)
H28_6 H 0.4213 0.0779 0.8162
C51_6 C 0.3663(5) 0.12109(17) 0.79631(9)
H29_6 H 0.3870 0.1169 0.7769
C52_6 C 0.3150(5) 0.15066(16) 0.80179(9)
C53_6 C 0.2842(5) 0.15686(14) 0.83079(11)
H30_6 H 0.2498 0.1766 0.8345
C54_6 C 0.2882(7) 0.2109(2) 0.7740(2)
C55_6 C 0.2888(8) 0.1732(2) 0.77465(19)
C56_6 C 0.3741(11) 0.0619(3) 0.9271(3)
H35_6 H 0.133195 0.617184 0.0183842
H37_6 H 0.262904 0.549091 0.0211678
H38_6 H 0.263489 0.568091 0.988029
O1_7 O 0.8298(9) 0.2706(3) 0.20249(19)
H1_7 H 0.8652 0.2572 0.2098
C1_7 C 0.7500 0.2704(3) 0.2500
C2_7 C 0.7500 0.3449(4) 0.2500
H2_7 H 0.7500 0.3700 0.2500
C3_7 C 0.8767(5) 0.41948(14) 0.12764(11)
H3_7 H 0.9111 0.4393 0.1313
C4_7 C 0.8459(5) 0.41328(16) 0.09864(9)
C5_7 C 0.7945(6) 0.38370(18) 0.09316(9)
H4_7 H 0.7739 0.3796 0.0738
C6_7 C 0.7740(5) 0.36033(16) 0.11668(10)
H5_7 H 0.7396 0.3405 0.1130
C7_7 C 0.8048(4) 0.36652(11) 0.14568(8)
C8_7 C 0.8561(3) 0.39610(11) 0.15116(8)
C9_7 C 0.8869(5) 0.40229(16) 0.18016(10)
H6_7 H 0.9213 0.4221 0.1838
C10_7 C 0.8663(5) 0.37891(17) 0.20369(9)
H7_7 H 0.8870 0.3831 0.2231
C11_7 C 0.8150(5) 0.34934(16) 0.19821(9)
C12_7 C 0.7842(5) 0.34314(14) 0.16921(11)
H8_7 H 0.7498 0.3234 0.1655
C13_7 C 0.7882(7) 0.2891(2) 0.2260(2)
C14_7 C 0.7888(8) 0.3268(2) 0.22535(19)
C15_7 C 0.8741(11) 0.4381(3) 0.0729(3)
O8_7 O 0.8298(9) 0.2294(3) 0.29751(19)
H9_7 H 0.8652 0.2428 0.2902
C16_7 C 0.7500 0.2296(3) 0.2500
C17_7 C 0.7500 0.1551(4) 0.2500
H10_7 H 0.7500 0.1300 0.2500
C18_7 C 0.8767(5) 0.08052(14) 0.37236(11)
H11_7 H 0.9111 0.0607 0.3687
C19_7 C 0.8459(5) 0.08672(16) 0.40136(9)
C20_7 C 0.7945(6) 0.11630(18) 0.40684(9)
H12_7 H 0.7739 0.1204 0.4262
C21_7 C 0.7740(5) 0.13967(16) 0.38332(10)
H13_7 H 0.7396 0.1595 0.3870
C22_7 C 0.8048(4) 0.13348(11) 0.35432(8)
C23_7 C 0.8561(3) 0.10390(11) 0.34884(8)
C24_7 C 0.8869(5) 0.09771(16) 0.31984(10)
H14_7 H 0.9213 0.0779 0.3162
C25_7 C 0.8663(5) 0.12109(17) 0.29631(9)
H15_7 H 0.8870 0.1169 0.2769
C26_7 C 0.8150(5) 0.15066(16) 0.30179(9)
C27_7 C 0.7842(5) 0.15686(14) 0.33079(11)
H16_7 H 0.7498 0.1766 0.3345
C28_7 C 0.7882(7) 0.2109(2) 0.2740(2)
C29_7 C 0.7888(8) 0.1732(2) 0.27465(19)
C30_7 C 0.8741(11) 0.0619(3) 0.4271(3)
O11_7 O 0.6702(9) 0.2706(3) 0.29751(19)
H17_7 H 0.6348 0.2572 0.2902
C31_7 C 0.6233(5) 0.41948(14) 0.37236(11)
H18_7 H 0.5889 0.4393 0.3687
C32_7 C 0.6541(5) 0.41328(16) 0.40136(9)
C33_7 C 0.7055(6) 0.38370(18) 0.40684(9)
H19_7 H 0.7261 0.3796 0.4262
C34_7 C 0.7260(5) 0.36033(16) 0.38332(10)
H20_7 H 0.7604 0.3405 0.3870
C35_7 C 0.6952(4) 0.36652(11) 0.35432(8)
C36_7 C 0.6439(3) 0.39610(11) 0.34884(8)
C37_7 C 0.6131(5) 0.40229(16) 0.31984(10)
H21_7 H 0.5787 0.4221 0.3162
C38_7 C 0.6337(5) 0.37891(17) 0.29631(9)
H22_7 H 0.6130 0.3831 0.2769
C39_7 C 0.6850(5) 0.34934(16) 0.30179(9)
C40_7 C 0.7158(5) 0.34314(14) 0.33079(11)
H23_7 H 0.7502 0.3234 0.3345
C41_7 C 0.7118(7) 0.2891(2) 0.2740(2)
C42_7 C 0.7112(8) 0.3268(2) 0.27465(19)
C43_7 C 0.6259(11) 0.4381(3) 0.4271(3)
O14_7 O 0.6702(9) 0.2294(3) 0.20249(19)
H24_7 H 0.6348 0.2428 0.2098
C44_7 C 0.6233(5) 0.08052(14) 0.12764(11)
H25_7 H 0.5889 0.0607 0.1313
C45_7 C 0.6541(5) 0.08672(16) 0.09864(9)
C46_7 C 0.7055(6) 0.11630(18) 0.09316(9)
H26_7 H 0.7261 0.1204 0.0738
C47_7 C 0.7260(5) 0.13967(16) 0.11668(10)
H27_7 H 0.7604 0.1595 0.1130
C48_7 C 0.6952(4) 0.13348(11) 0.14568(8)
C49_7 C 0.6439(3) 0.10390(11) 0.15116(8)
C50_7 C 0.6131(5) 0.09771(16) 0.18016(10)
H28_7 H 0.5787 0.0779 0.1838
C51_7 C 0.6337(5) 0.12109(17) 0.20369(9)
H29_7 H 0.6130 0.1169 0.2231
C52_7 C 0.6850(5) 0.15066(16) 0.19821(9)
C53_7 C 0.7158(5) 0.15686(14) 0.16921(11)
H30_7 H 0.7502 0.1766 0.1655
C54_7 C 0.7118(7) 0.2109(2) 0.2260(2)
C55_7 C 0.7112(8) 0.1732(2) 0.22535(19)
C56_7 C 0.6259(11) 0.0619(3) 0.0729(3)
H31_6 H 0.866805 0.382816 0.0183842
H33_6 H 0.737096 0.450909 0.0211678
H34_6 H 0.736511 0.431909 0.988029
O1_8 O 0.1702(9) 0.7294(3) 0.20249(19)
H1_8 H 0.1348 0.7428 0.2098
C1_8 C 0.2500 0.7296(3) 0.2500
C2_8 C 0.2500 0.6551(4) 0.2500
H2_8 H 0.2500 0.6300 0.2500
C3_8 C 0.1233(5) 0.58052(14) 0.12764(11)
H3_8 H 0.0889 0.5607 0.1313
C4_8 C 0.1541(5) 0.58672(16) 0.09864(9)
C5_8 C 0.2055(6) 0.61630(18) 0.09316(9)
H4_8 H 0.2261 0.6204 0.0738
C6_8 C 0.2260(5) 0.63967(16) 0.11668(10)
H5_8 H 0.2604 0.6595 0.1130
C7_8 C 0.1952(4) 0.63348(11) 0.14568(8)
C8_8 C 0.1439(3) 0.60390(11) 0.15116(8)
C9_8 C 0.1131(5) 0.59771(16) 0.18016(10)
H6_8 H 0.0787 0.5779 0.1838
C10_8 C 0.1337(5) 0.62109(17) 0.20369(9)
H7_8 H 0.1130 0.6169 0.2231
C11_8 C 0.1850(5) 0.65066(16) 0.19821(9)
C12_8 C 0.2158(5) 0.65686(14) 0.16921(11)
H8_8 H 0.2502 0.6766 0.1655
C13_8 C 0.2118(7) 0.7109(2) 0.2260(2)
C14_8 C 0.2112(8) 0.6732(2) 0.22535(19)
C15_8 C 0.1259(11) 0.5619(3) 0.0729(3)
O8_8 O 0.1702(9) 0.7706(3) 0.29751(19)
H9_8 H 0.1348 0.7572 0.2902
C16_8 C 0.2500 0.7704(3) 0.2500
C17_8 C 0.2500 0.8449(4) 0.2500
H10_8 H 0.2500 0.8700 0.2500
C18_8 C 0.1233(5) 0.91948(14) 0.37236(11)
H11_8 H 0.0889 0.9393 0.3687
C19_8 C 0.1541(5) 0.91328(16) 0.40136(9)
C20_8 C 0.2055(6) 0.88370(18) 0.40684(9)
H12_8 H 0.2261 0.8796 0.4262
C21_8 C 0.2260(5) 0.86033(16) 0.38332(10)
H13_8 H 0.2604 0.8405 0.3870
C22_8 C 0.1952(4) 0.86652(11) 0.35432(8)
C23_8 C 0.1439(3) 0.89610(11) 0.34884(8)
C24_8 C 0.1131(5) 0.90229(16) 0.31984(10)
H14_8 H 0.0787 0.9221 0.3162
C25_8 C 0.1337(5) 0.87891(17) 0.29631(9)
H15_8 H 0.1130 0.8831 0.2769
C26_8 C 0.1850(5) 0.84934(16) 0.30179(9)
C27_8 C 0.2158(5) 0.84314(14) 0.33079(11)
H16_8 H 0.2502 0.8234 0.3345
C28_8 C 0.2118(7) 0.7891(2) 0.2740(2)
C29_8 C 0.2112(8) 0.8268(2) 0.27465(19)
C30_8 C 0.1259(11) 0.9381(3) 0.4271(3)
O11_8 O 0.3298(9) 0.7294(3) 0.29751(19)
H17_8 H 0.3652 0.7428 0.2902
C31_8 C 0.3767(5) 0.58052(14) 0.37236(11)
H18_8 H 0.4111 0.5607 0.3687
C32_8 C 0.3459(5) 0.58672(16) 0.40136(9)
C33_8 C 0.2945(6) 0.61630(18) 0.40684(9)
H19_8 H 0.2739 0.6204 0.4262
C34_8 C 0.2740(5) 0.63967(16) 0.38332(10)
H20_8 H 0.2396 0.6595 0.3870
C35_8 C 0.3048(4) 0.63348(11) 0.35432(8)
C36_8 C 0.3561(3) 0.60390(11) 0.34884(8)
C37_8 C 0.3869(5) 0.59771(16) 0.31984(10)
H21_8 H 0.4213 0.5779 0.3162
C38_8 C 0.3663(5) 0.62109(17) 0.29631(9)
H22_8 H 0.3870 0.6169 0.2769
C39_8 C 0.3150(5) 0.65066(16) 0.30179(9)
C40_8 C 0.2842(5) 0.65686(14) 0.33079(11)
H23_8 H 0.2498 0.6766 0.3345
C41_8 C 0.2882(7) 0.7109(2) 0.2740(2)
C42_8 C 0.2888(8) 0.6732(2) 0.27465(19)
C43_8 C 0.3741(11) 0.5619(3) 0.4271(3)
O14_8 O 0.3298(9) 0.7706(3) 0.20249(19)
H24_8 H 0.3652 0.7572 0.2098
C44_8 C 0.3767(5) 0.91948(14) 0.12764(11)
H25_8 H 0.4111 0.9393 0.1313
C45_8 C 0.3459(5) 0.91328(16) 0.09864(9)
C46_8 C 0.2945(6) 0.88370(18) 0.09316(9)
H26_8 H 0.2739 0.8796 0.0738
C47_8 C 0.2740(5) 0.86033(16) 0.11668(10)
H27_8 H 0.2396 0.8405 0.1130
C48_8 C 0.3048(4) 0.86652(11) 0.14568(8)
C49_8 C 0.3561(3) 0.89610(11) 0.15116(8)
C50_8 C 0.3869(5) 0.90229(16) 0.18016(10)
H28_8 H 0.4213 0.9221 0.1838
C51_8 C 0.3663(5) 0.87891(17) 0.20369(9)
H29_8 H 0.3870 0.8831 0.2231
C52_8 C 0.3150(5) 0.84934(16) 0.19821(9)
C53_8 C 0.2842(5) 0.84314(14) 0.16921(11)
H30_8 H 0.2498 0.8234 0.1655
C54_8 C 0.2882(7) 0.7891(2) 0.2260(2)
C55_8 C 0.2888(8) 0.8268(2) 0.22535(19)
C56_8 C 0.3741(11) 0.9381(3) 0.0729(3)
H34_7 H 0.236511 0.0680911 0.0119711
H31_7 H 0.366805 0.117184 0.981616
H33_7 H 0.237096 0.0490912 0.978832
H38_7 H 0.763489 0.931909 0.0119711
H35_7 H 0.633195 0.882816 0.981616
H37_7 H 0.762904 0.950909 0.978832
H35_8 H 0.633195 0.117184 0.0183842
H37_8 H 0.762904 0.0490912 0.0211678
H38_8 H 0.763489 0.0680911 0.988029
H31_8 H 0.366805 0.882816 0.0183842
H33_8 H 0.237096 0.950909 0.0211678
H34_8 H 0.236511 0.931909 0.988029
loop_
_geom_bond_atom_site_label_1
_geom_bond_atom_site_label_2
_geom_bond_site_symmetry_1
_geom_bond_site_symmetry_2
Zr1 O3 1_555 1_555
Zr2 O2 1_555 1_555
O1 H1 1_555 1_555
C1 C13 1_555 1_555
C2 H2 1_555 1_555
C3 H3 1_555 1_555
C4 C3 1_555 1_555
C5 C4 1_555 1_555
H4 C5 1_555 1_555
C6 C5 1_555 1_555
H5 C6 1_555 1_555
C7 C6 1_555 1_555
C8 C3 1_555 1_555
C9 C8 1_555 1_555
H6 C9 1_555 1_555
C10 C9 1_555 1_555
H7 C10 1_555 1_555
C11 C10 1_555 1_555
C12 C7 1_555 1_555
H8 C12 1_555 1_555
C13 O1 1_555 1_555
C14 C2 1_555 1_555
C15 C4 1_555 1_555
O2 C15 1_555 1_555
O4 Zr1 1_555 1_555
O5 Zr1 1_555 1_555
O6 Zr1 1_555 1_555
O7 Zr1 1_555 1_555
O8 H9 1_555 1_555
C16 C1 1_555 1_555
C17 H10 1_555 1_555
C18 H11 1_555 1_555
C19 C18 1_555 1_555
C20 C19 1_555 1_555
H12 C20 1_555 1_555
C21 C20 1_555 1_555
H13 C21 1_555 1_555
C22 C21 1_555 1_555
C23 C18 1_555 1_555
C24 C23 1_555 1_555
H14 C24 1_555 1_555
C25 C24 1_555 1_555
H15 C25 1_555 1_555
C26 C25 1_555 1_555
C27 C22 1_555 1_555
H16 C27 1_555 1_555
C28 O8 1_555 1_555
C29 C17 1_555 1_555
C30 C19 1_555 1_555
O9 C30 1_555 1_555
O10 C30 1_555 1_555
O11 H17 1_555 1_555
C31 H18 1_555 1_555
C32 C31 1_555 1_555
C33 C32 1_555 1_555
H19 C33 1_555 1_555
C34 C33 1_555 1_555
H20 C34 1_555 1_555
C35 C34 1_555 1_555
C36 C31 1_555 1_555
C37 C36 1_555 1_555
H21 C37 1_555 1_555
C38 C37 1_555 1_555
H22 C38 1_555 1_555
C39 C38 1_555 1_555
C40 C35 1_555 1_555
H23 C40 1_555 1_555
C41 C1 1_555 1_555
C42 C2 1_555 1_555
C43 C32 1_555 1_555
O12 C43 1_555 1_555
O13 C43 1_555 1_555
O14 H24 1_555 1_555
C44 H25 1_555 1_555
C45 C44 1_555 1_555
C46 C45 1_555 1_555
H26 C46 1_555 1_555
C47 C46 1_555 1_555
H27 C47 1_555 1_555
C48 C47 1_555 1_555
C49 C44 1_555 1_555
C50 C49 1_555 1_555
H28 C50 1_555 1_555
C51 C50 1_555 1_555
H29 C51 1_555 1_555
C52 C51 1_555 1_555
C53 C48 1_555 1_555
H30 C53 1_555 1_555
C54 C16 1_555 1_555
C55 C17 1_555 1_555
C56 C45 1_555 1_555
O15 C56 1_555 1_555
O16 C56 1_555 1_555
O19 Zr2 1_555 1_555
Zr4 O4 1_555 1_555
Zr6 O10 1_555 1_555
Zr7 O13 1_555 1_555
Zr8 O16 1_555 1_555
Zr9 O9 1_555 1_555
Zr10 O12 1_555 1_555
Zr11 O15 1_555 1_555
O23 Zr2 1_555 1_555
Zr2 O4 1_555 1_555
Zr2 O5 1_555 1_555
C7 C8 1_555 1_555
C11 C12 1_555 1_555
C11 C14 1_555 1_555
C13 C14 1_555 1_555
C15 O7 1_555 1_555
C16 C28 1_555 1_555
C22 C23 1_555 1_555
C26 C27 1_555 1_555
C26 C29 1_555 1_555
C28 C29 1_555 1_555
O11 C41 1_555 1_555
C35 C36 1_555 1_555
C39 C40 1_555 1_555
C39 C42 1_555 1_555
C41 C42 1_555 1_555
O14 C54 1_555 1_555
C48 C49 1_555 1_555
C52 C53 1_555 1_555
C52 C55 1_555 1_555
C54 C55 1_555 1_555
O19 Zr4 1_555 1_555
O6 H31 1_555 1_555
O6 H32 1_555 1_555
O3 H33 1_555 1_555
Zr1_2 O3_2 1_555 1_555
O6_2 Zr1_2 1_555 1_555
O24 Zr1_2 1_555 1_555
O27 Zr1_2 1_555 1_555
O30 Zr1_2 1_555 1_555
Zr4_2 O24 1_555 1_555
Zr4_2 O26 1_555 1_555
O6_2 H32_2 1_555 1_555
O3_2 H34 1_555 1_555
Zr3 O17 1_555 1_555
O18 Zr2_2 1_555 1_555
O19_2 Zr2_2 1_555 1_555
O20 Zr3 1_555 1_555
Zr5 O5_2 1_555 1_555
O21 Zr2_2 1_555 1_555
O22 Zr2_2 1_555 1_555
O28 Zr3 1_555 1_555
Zr2_2 O5_2 1_555 1_555
Zr3 O18 1_555 1_555
Zr3 O19_2 1_555 1_555
O18 Zr5 1_555 1_555
O20 H35 1_555 1_555
O20 H36 1_555 1_555
O17 H37 1_555 1_555
Zr3_2 O17_2 1_555 1_555
O20_2 Zr3_2 1_555 1_555
O25 Zr3_2 1_555 1_555
O26_2 Zr3_2 1_555 1_555
O29 Zr3_2 1_555 1_555
Zr5_2 O25 1_555 1_555
Zr5_2 O27_2 1_555 1_555
O20_2 H36_2 1_555 1_555
O17_2 H38 1_555 1_555
O1_2 H1_2 1_555 1_555
C1_2 C13_2 1_555 1_555
C2_2 H2_2 1_555 1_555
C3_2 H3_2 1_555 1_555
C4_2 C3_2 1_555 1_555
C5_2 C4_2 1_555 1_555
H4_2 C5_2 1_555 1_555
C6_2 C5_2 1_555 1_555
H5_2 C6_2 1_555 1_555
C7_2 C6_2 1_555 1_555
C8_2 C3_2 1_555 1_555
C9_2 C8_2 1_555 1_555
H6_2 C9_2 1_555 1_555
C10_2 C9_2 1_555 1_555
H7_2 C10_2 1_555 1_555
C11_2 C10_2 1_555 1_555
C12_2 C7_2 1_555 1_555
H8_2 C12_2 1_555 1_555
C13_2 O1_2 1_555 1_555
C14_2 C2_2 1_555 1_555
C15_2 C4_2 1_555 1_555
O21 C15_2 1_555 1_555
O8_2 H9_2 1_555 1_555
C16_2 C1_2 1_555 1_555
C17_2 H10_2 1_555 1_555
C18_2 H11_2 1_555 1_555
C19_2 C18_2 1_555 1_555
C20_2 C19_2 1_555 1_555
H12_2 C20_2 1_555 1_555
C21_2 C20_2 1_555 1_555
H13_2 C21_2 1_555 1_555
C22_2 C21_2 1_555 1_555
C23_2 C18_2 1_555 1_555
C24_2 C23_2 1_555 1_555
H14_2 C24_2 1_555 1_555
C25_2 C24_2 1_555 1_555
H15_2 C25_2 1_555 1_555
C26_2 C25_2 1_555 1_555
C27_2 C22_2 1_555 1_555
H16_2 C27_2 1_555 1_555
C28_2 O8_2 1_555 1_555
C29_2 C17_2 1_555 1_555
C30_2 C19_2 1_555 1_555
O9_2 C30_2 1_555 1_555
O10_2 C30_2 1_555 1_555
O11_2 H17_2 1_555 1_555
C31_2 H18_2 1_555 1_555
C32_2 C31_2 1_555 1_555
C33_2 C32_2 1_555 1_555
H19_2 C33_2 1_555 1_555
C34_2 C33_2 1_555 1_555
H20_2 C34_2 1_555 1_555
C35_2 C34_2 1_555 1_555
C36_2 C31_2 1_555 1_555
C37_2 C36_2 1_555 1_555
H21_2 C37_2 1_555 1_555
C38_2 C37_2 1_555 1_555
H22_2 C38_2 1_555 1_555
C39_2 C38_2 1_555 1_555
C40_2 C35_2 1_555 1_555
H23_2 C40_2 1_555 1_555
C41_2 C1_2 1_555 1_555
C42_2 C2_2 1_555 1_555
C43_2 C32_2 1_555 1_555
O12_2 C43_2 1_555 1_555
O13_2 C43_2 1_555 1_555
O14_2 H24_2 1_555 1_555
C44_2 H25_2 1_555 1_555
C45_2 C44_2 1_555 1_555
C46_2 C45_2 1_555 1_555
H26_2 C46_2 1_555 1_555
C47_2 C46_2 1_555 1_555
H27_2 C47_2 1_555 1_555
C48_2 C47_2 1_555 1_555
C49_2 C44_2 1_555 1_555
C50_2 C49_2 1_555 1_555
H28_2 C50_2 1_555 1_555
C51_2 C50_2 1_555 1_555
H29_2 C51_2 1_555 1_555
C52_2 C51_2 1_555 1_555
C53_2 C48_2 1_555 1_555
H30_2 C53_2 1_555 1_555
C54_2 C16_2 1_555 1_555
C55_2 C17_2 1_555 1_555
C56_2 C45_2 1_555 1_555
O15_2 C56_2 1_555 1_555
O16_2 C56_2 1_555 1_555
Zr6_2 O10_2 1_555 1_555
Zr7_2 O13_2 1_555 1_555
Zr8_3 O16_2 1_555 1_555
Zr9_4 O9_2 1_555 1_555
Zr10 O12_2 1_555 1_555
Zr11_2 O15_2 1_555 1_555
C7_2 C8_2 1_555 1_555
C11_2 C12_2 1_555 1_555
C11_2 C14_2 1_555 1_555
C13_2 C14_2 1_555 1_555
C15_2 O28 1_555 1_555
C16_2 C28_2 1_555 1_555
C22_2 C23_2 1_555 1_555
C26_2 C27_2 1_555 1_555
C26_2 C29_2 1_555 1_555
C28_2 C29_2 1_555 1_555
O11_2 C41_2 1_555 1_555
C35_2 C36_2 1_555 1_555
C39_2 C40_2 1_555 1_555
C39_2 C42_2 1_555 1_555
C41_2 C42_2 1_555 1_555
O14_2 C54_2 1_555 1_555
C48_2 C49_2 1_555 1_555
C52_2 C53_2 1_555 1_555
C52_2 C55_2 1_555 1_555
C54_2 C55_2 1_555 1_555
Zr4 O3_3 1_555 1_555
O6_3 Zr4 1_555 1_555
O30_2 Zr4 1_555 1_555
O6_3 H32_3 1_555 1_555
O3_3 H34_2 1_555 1_555
Zr4_2 O3_4 1_555 1_555
Zr2_3 O2_2 1_555 1_555
O1_3 H1_3 1_555 1_555
C1_3 C13_3 1_555 1_555
C2_3 H2_3 1_555 1_555
C3_3 H3_3 1_555 1_555
C4_3 C3_3 1_555 1_555
C5_3 C4_3 1_555 1_555
H4_3 C5_3 1_555 1_555
C6_3 C5_3 1_555 1_555
H5_3 C6_3 1_555 1_555
C7_3 C6_3 1_555 1_555
C8_3 C3_3 1_555 1_555
C9_3 C8_3 1_555 1_555
H6_3 C9_3 1_555 1_555
C10_3 C9_3 1_555 1_555
H7_3 C10_3 1_555 1_555
C11_3 C10_3 1_555 1_555
C12_3 C7_3 1_555 1_555
H8_3 C12_3 1_555 1_555
C13_3 O1_3 1_555 1_555
C14_3 C2_3 1_555 1_555
C15_3 C4_3 1_555 1_555
O2_2 C15_3 1_555 1_555
O6_4 Zr4_2 1_555 1_555
O7_2 Zr4_2 1_555 1_555
O8_3 H9_3 1_555 1_555
C16_3 C1_3 1_555 1_555
C17_3 H10_3 1_555 1_555
C18_3 H11_3 1_555 1_555
C19_3 C18_3 1_555 1_555
C20_3 C19_3 1_555 1_555
H12_3 C20_3 1_555 1_555
C21_3 C20_3 1_555 1_555
H13_3 C21_3 1_555 1_555
C22_3 C21_3 1_555 1_555
C23_3 C18_3 1_555 1_555
C24_3 C23_3 1_555 1_555
H14_3 C24_3 1_555 1_555
C25_3 C24_3 1_555 1_555
H15_3 C25_3 1_555 1_555
C26_3 C25_3 1_555 1_555
C27_3 C22_3 1_555 1_555
H16_3 C27_3 1_555 1_555
C28_3 O8_3 1_555 1_555
C29_3 C17_3 1_555 1_555
C30_3 C19_3 1_555 1_555
O9_3 C30_3 1_555 1_555
O10_3 C30_3 1_555 1_555
O11_3 H17_3 1_555 1_555
C31_3 H18_3 1_555 1_555
C32_3 C31_3 1_555 1_555
C33_3 C32_3 1_555 1_555
H19_3 C33_3 1_555 1_555
C34_3 C33_3 1_555 1_555
H20_3 C34_3 1_555 1_555
C35_3 C34_3 1_555 1_555
C36_3 C31_3 1_555 1_555
C37_3 C36_3 1_555 1_555
H21_3 C37_3 1_555 1_555
C38_3 C37_3 1_555 1_555
H22_3 C38_3 1_555 1_555
C39_3 C38_3 1_555 1_555
C40_3 C35_3 1_555 1_555
H23_3 C40_3 1_555 1_555
C41_3 C1_3 1_555 1_555
C42_3 C2_3 1_555 1_555
C43_3 C32_3 1_555 1_555
O12_3 C43_3 1_555 1_555
O13_3 C43_3 1_555 1_555
O14_3 H24_3 1_555 1_555
C44_3 H25_3 1_555 1_555
C45_3 C44_3 1_555 1_555
C46_3 C45_3 1_555 1_555
H26_3 C46_3 1_555 1_555
C47_3 C46_3 1_555 1_555
H27_3 C47_3 1_555 1_555
C48_3 C47_3 1_555 1_555
C49_3 C44_3 1_555 1_555
C50_3 C49_3 1_555 1_555
H28_3 C50_3 1_555 1_555
C51_3 C50_3 1_555 1_555
H29_3 C51_3 1_555 1_555
C52_3 C51_3 1_555 1_555
C53_3 C48_3 1_555 1_555
H30_3 C53_3 1_555 1_555
C54_3 C16_3 1_555 1_555
C55_3 C17_3 1_555 1_555
C56_3 C45_3 1_555 1_555
O15_3 C56_3 1_555 1_555
O16_3 C56_3 1_555 1_555
O27 Zr2_3 1_555 1_555
Zr6_3 O10_3 1_555 1_555
Zr7_3 O13_3 1_555 1_555
Zr8_6 O16_3 1_555 1_555
Zr9_6 O9_3 1_555 1_555
Zr10_2 O12_3 1_555 1_555
Zr11_4 O15_3 1_555 1_555
O23_2 Zr2_3 1_555 1_555
Zr2_3 O24 1_555 1_555
Zr2_3 O26 1_555 1_555
C7_3 C8_3 1_555 1_555
C11_3 C12_3 1_555 1_555
C11_3 C14_3 1_555 1_555
C13_3 C14_3 1_555 1_555
C15_3 O7_2 1_555 1_555
C16_3 C28_3 1_555 1_555
C22_3 C23_3 1_555 1_555
C26_3 C27_3 1_555 1_555
C26_3 C29_3 1_555 1_555
C28_3 C29_3 1_555 1_555
O11_3 C41_3 1_555 1_555
C35_3 C36_3 1_555 1_555
C39_3 C40_3 1_555 1_555
C39_3 C42_3 1_555 1_555
C41_3 C42_3 1_555 1_555
O14_3 C54_3 1_555 1_555
C48_3 C49_3 1_555 1_555
C52_3 C53_3 1_555 1_555
C52_3 C55_3 1_555 1_555
C54_3 C55_3 1_555 1_555
O6_4 H31_2 1_555 1_555
O6_4 H32_4 1_555 1_555
O3_4 H33_2 1_555 1_555
Zr5 O17_3 1_555 1_555
O20_3 Zr5 1_555 1_555
O29_2 Zr5 1_555 1_555
O20_3 H36_3 1_555 1_555
O17_3 H38_2 1_555 1_555
Zr5_2 O17_4 1_555 1_555
O25 Zr2_4 1_555 1_555
O27_2 Zr2_4 1_555 1_555
O20_4 Zr5_2 1_555 1_555
O21_2 Zr2_4 1_555 1_555
O22_2 Zr2_4 1_555 1_555
O28_2 Zr5_2 1_555 1_555
Zr2_4 O26_2 1_555 1_555
O20_4 H35_2 1_555 1_555
O20_4 H36_4 1_555 1_555
O17_4 H37_2 1_555 1_555
O1_4 H1_4 1_555 1_555
C1_4 C13_4 1_555 1_555
C2_4 H2_4 1_555 1_555
C3_4 H3_4 1_555 1_555
C4_4 C3_4 1_555 1_555
C5_4 C4_4 1_555 1_555
H4_4 C5_4 1_555 1_555
C6_4 C5_4 1_555 1_555
H5_4 C6_4 1_555 1_555
C7_4 C6_4 1_555 1_555
C8_4 C3_4 1_555 1_555
C9_4 C8_4 1_555 1_555
H6_4 C9_4 1_555 1_555
C10_4 C9_4 1_555 1_555
H7_4 C10_4 1_555 1_555
C11_4 C10_4 1_555 1_555
C12_4 C7_4 1_555 1_555
H8_4 C12_4 1_555 1_555
C13_4 O1_4 1_555 1_555
C14_4 C2_4 1_555 1_555
C15_4 C4_4 1_555 1_555
O21_2 C15_4 1_555 1_555
O8_4 H9_4 1_555 1_555
C16_4 C1_4 1_555 1_555
C17_4 H10_4 1_555 1_555
C18_4 H11_4 1_555 1_555
C19_4 C18_4 1_555 1_555
C20_4 C19_4 1_555 1_555
H12_4 C20_4 1_555 1_555
C21_4 C20_4 1_555 1_555
H13_4 C21_4 1_555 1_555
C22_4 C21_4 1_555 1_555
C23_4 C18_4 1_555 1_555
C24_4 C23_4 1_555 1_555
H14_4 C24_4 1_555 1_555
C25_4 C24_4 1_555 1_555
H15_4 C25_4 1_555 1_555
C26_4 C25_4 1_555 1_555
C27_4 C22_4 1_555 1_555
H16_4 C27_4 1_555 1_555
C28_4 O8_4 1_555 1_555
C29_4 C17_4 1_555 1_555
C30_4 C19_4 1_555 1_555
O9_4 C30_4 1_555 1_555
O10_4 C30_4 1_555 1_555
O11_4 H17_4 1_555 1_555
C31_4 H18_4 1_555 1_555
C32_4 C31_4 1_555 1_555
C33_4 C32_4 1_555 1_555
H19_4 C33_4 1_555 1_555
C34_4 C33_4 1_555 1_555
H20_4 C34_4 1_555 1_555
C35_4 C34_4 1_555 1_555
C36_4 C31_4 1_555 1_555
C37_4 C36_4 1_555 1_555
H21_4 C37_4 1_555 1_555
C38_4 C37_4 1_555 1_555
H22_4 C38_4 1_555 1_555
C39_4 C38_4 1_555 1_555
C40_4 C35_4 1_555 1_555
H23_4 C40_4 1_555 1_555
C41_4 C1_4 1_555 1_555
C42_4 C2_4 1_555 1_555
C43_4 C32_4 1_555 1_555
O12_4 C43_4 1_555 1_555
O13_4 C43_4 1_555 1_555
O14_4 H24_4 1_555 1_555
C44_4 H25_4 1_555 1_555
C45_4 C44_4 1_555 1_555
C46_4 C45_4 1_555 1_555
H26_4 C46_4 1_555 1_555
C47_4 C46_4 1_555 1_555
H27_4 C47_4 1_555 1_555
C48_4 C47_4 1_555 1_555
C49_4 C44_4 1_555 1_555
C50_4 C49_4 1_555 1_555
H28_4 C50_4 1_555 1_555
C51_4 C50_4 1_555 1_555
H29_4 C51_4 1_555 1_555
C52_4 C51_4 1_555 1_555
C53_4 C48_4 1_555 1_555
H30_4 C53_4 1_555 1_555
C54_4 C16_4 1_555 1_555
C55_4 C17_4 1_555 1_555
C56_4 C45_4 1_555 1_555
O15_4 C56_4 1_555 1_555
O16_4 C56_4 1_555 1_555
Zr6_4 O10_4 1_555 1_555
Zr7_4 O13_4 1_555 1_555
Zr8_8 O16_4 1_555 1_555
Zr9_7 O9_4 1_555 1_555
Zr10_2 O12_4 1_555 1_555
Zr11_3 O15_4 1_555 1_555
C7_4 C8_4 1_555 1_555
C11_4 C12_4 1_555 1_555
C11_4 C14_4 1_555 1_555
C13_4 C14_4 1_555 1_555
C15_4 O28_2 1_555 1_555
C16_4 C28_4 1_555 1_555
C22_4 C23_4 1_555 1_555
C26_4 C27_4 1_555 1_555
C26_4 C29_4 1_555 1_555
C28_4 C29_4 1_555 1_555
O11_4 C41_4 1_555 1_555
C35_4 C36_4 1_555 1_555
C39_4 C40_4 1_555 1_555
C39_4 C42_4 1_555 1_555
C41_4 C42_4 1_555 1_555
O14_4 C54_4 1_555 1_555
C48_4 C49_4 1_555 1_555
C52_4 C53_4 1_555 1_555
C52_4 C55_4 1_555 1_555
C54_4 C55_4 1_555 1_555
O19_3 Zr9_5 1_555 1_555
Zr6 O4_2 1_555 1_555
O23_3 Zr9_5 1_555 1_555
Zr9_5 O4_2 1_555 1_555
O19_3 Zr6 1_555 1_555
Zr6 O24_2 1_555 1_555
Zr6 O26_3 1_555 1_555
Zr6_3 O3_5 1_555 1_555
O4_3 Zr6_3 1_555 1_555
O5_3 Zr6_3 1_555 1_555
O6_5 Zr6_3 1_555 1_555
O24_3 Zr6_3 1_555 1_555
O27_3 Zr6_3 1_555 1_555
O30_3 Zr6_3 1_555 1_555
Zr9_6 O4_3 1_555 1_555
Zr9_6 O5_3 1_555 1_555
Zr6_4 O17_5 1_555 1_555
O18_2 Zr9_7 1_555 1_555
O19_4 Zr9_7 1_555 1_555
O20_5 Zr6_4 1_555 1_555
O25_2 Zr6_4 1_555 1_555
O26_4 Zr6_4 1_555 1_555
O29_3 Zr6_4 1_555 1_555
Zr6_4 O18_2 1_555 1_555
Zr6_4 O19_4 1_555 1_555
O18_3 Zr9_8 1_555 1_555
Zr6_2 O5_4 1_555 1_555
O22_3 Zr9_8 1_555 1_555
Zr9_8 O5_4 1_555 1_555
O18_3 Zr6_2 1_555 1_555
Zr6_2 O25_3 1_555 1_555
Zr6_2 O27_4 1_555 1_555
Zr6 O3_6 1_555 1_555
O6_6 Zr6 1_555 1_555
O30_4 Zr6 1_555 1_555
Zr9 O24_2 1_555 1_555
Zr9 O26_3 1_555 1_555
O27_3 Zr9_2 1_555 1_555
O23_4 Zr9_2 1_555 1_555
Zr9_2 O24_3 1_555 1_555
O25_2 Zr9_3 1_555 1_555
O22_4 Zr9_3 1_555 1_555
Zr9_3 O26_4 1_555 1_555
Zr6_2 O17_6 1_555 1_555
O25_3 Zr9_4 1_555 1_555
O27_4 Zr9_4 1_555 1_555
O20_6 Zr6_2 1_555 1_555
O29_4 Zr6_2 1_555 1_555
Zr7_4 O3_7 1_555 1_555
O4_4 Zr7_4 1_555 1_555
O5_5 Zr7_4 1_555 1_555
O6_7 Zr7_4 1_555 1_555
Zr7_3 O17_7 1_555 1_555
O18_4 Zr10_2 1_555 1_555
O19_5 Zr10_2 1_555 1_555
O20_7 Zr7_3 1_555 1_555
Zr7_2 O4_4 1_555 1_555
Zr7 O5_5 1_555 1_555
O22_5 Zr10_2 1_555 1_555
O23_5 Zr10_2 1_555 1_555
O24_4 Zr7_4 1_555 1_555
O25_4 Zr7_3 1_555 1_555
O26_5 Zr7_3 1_555 1_555
O27_5 Zr7_4 1_555 1_555
O29_5 Zr7_3 1_555 1_555
O30_5 Zr7_4 1_555 1_555
Zr10_2 O4_4 1_555 1_555
Zr10_2 O5_5 1_555 1_555
Zr7_3 O18_4 1_555 1_555
Zr7_3 O19_5 1_555 1_555
O18_4 Zr7 1_555 1_555
O19_5 Zr7_2 1_555 1_555
Zr7_2 O24_4 1_555 1_555
Zr7_2 O26_5 1_555 1_555
Zr7 O25_4 1_555 1_555
Zr7 O27_5 1_555 1_555
Zr7_2 O3_8 1_555 1_555
O6_8 Zr7_2 1_555 1_555
Zr7 O17_8 1_555 1_555
O25_4 Zr10 1_555 1_555
O27_5 Zr10 1_555 1_555
O20_8 Zr7 1_555 1_555
O22_6 Zr10 1_555 1_555
O23_6 Zr10 1_555 1_555
O29_6 Zr7 1_555 1_555
O30_6 Zr7_2 1_555 1_555
Zr10 O24_4 1_555 1_555
Zr10 O26_5 1_555 1_555
Zr8 O17_9 1_555 1_555
O18_5 Zr11 1_555 1_555
O19_6 Zr11 1_555 1_555
O20_9 Zr8 1_555 1_555
Zr8_7 O4_5 1_555 1_555
O23_7 Zr11 1_555 1_555
Zr11 O4_5 1_555 1_555
Zr8 O18_5 1_555 1_555
Zr8 O19_6 1_555 1_555
O19_6 Zr8_7 1_555 1_555
O20_9 H35_3 1_555 1_555
O20_9 H36_5 1_555 1_555
O17_9 H37_3 1_555 1_555
Zr8_2 O17_10 1_555 1_555
O20_10 Zr8_2 1_555 1_555
O25_5 Zr8_2 1_555 1_555
O26_6 Zr8_2 1_555 1_555
O29_7 Zr8_2 1_555 1_555
Zr8_8 O24_5 1_555 1_555
Zr8_8 O26_6 1_555 1_555
O20_10 H36_6 1_555 1_555
O17_10 H38_3 1_555 1_555
Zr8_3 O3_9 1_555 1_555
O4_6 Zr8_3 1_555 1_555
O5_6 Zr8_3 1_555 1_555
O6_9 Zr8_3 1_555 1_555
O18_6 Zr11_2 1_555 1_555
Zr8_5 O5_6 1_555 1_555
O22_7 Zr11_2 1_555 1_555
Zr11_2 O4_6 1_555 1_555
Zr11_2 O5_6 1_555 1_555
O18_6 Zr8_5 1_555 1_555
O6_9 H31_3 1_555 1_555
O6_9 H32_5 1_555 1_555
O3_9 H33_3 1_555 1_555
Zr8_4 O3_10 1_555 1_555
O6_10 Zr8_4 1_555 1_555
O24_6 Zr8_4 1_555 1_555
O27_6 Zr8_4 1_555 1_555
O30_7 Zr8_4 1_555 1_555
Zr8_6 O25_6 1_555 1_555
Zr8_6 O27_6 1_555 1_555
O6_10 H32_6 1_555 1_555
O3_10 H34_3 1_555 1_555
Zr8_7 O3_11 1_555 1_555
O6_11 Zr8_7 1_555 1_555
O30_8 Zr8_7 1_555 1_555
O6_11 H32_7 1_555 1_555
O3_11 H34_4 1_555 1_555
Zr8_8 O3_12 1_555 1_555
O6_12 Zr8_8 1_555 1_555
O25_5 Zr11_3 1_555 1_555
O22_8 Zr11_3 1_555 1_555
Zr11_3 O24_5 1_555 1_555
Zr11_3 O26_6 1_555 1_555
O6_12 H31_4 1_555 1_555
O6_12 H32_8 1_555 1_555
O3_12 H33_4 1_555 1_555
Zr8_5 O17_11 1_555 1_555
O20_11 Zr8_5 1_555 1_555
O29_8 Zr8_5 1_555 1_555
O20_11 H36_7 1_555 1_555
O17_11 H38_4 1_555 1_555
Zr8_6 O17_12 1_555 1_555
O25_6 Zr11_4 1_555 1_555
O27_6 Zr11_4 1_555 1_555
O20_12 Zr8_6 1_555 1_555
O23_8 Zr11_4 1_555 1_555
Zr11_4 O24_6 1_555 1_555
O20_12 H35_4 1_555 1_555
O20_12 H36_8 1_555 1_555
O17_12 H37_4 1_555 1_555
O3 H38_5 1_555 1_555
O6_2 H35_5 1_555 1_555
O3_2 H37_5 1_555 1_555
O17 H34_5 1_555 1_555
O1_5 H1_5 1_555 1_555
C1_5 C13_5 1_555 1_555
C2_5 H2_5 1_555 1_555
C3_5 H3_5 1_555 1_555
C4_5 C3_5 1_555 1_555
C5_5 C4_5 1_555 1_555
H4_5 C5_5 1_555 1_555
C6_5 C5_5 1_555 1_555
H5_5 C6_5 1_555 1_555
C7_5 C6_5 1_555 1_555
C8_5 C3_5 1_555 1_555
C9_5 C8_5 1_555 1_555
H6_5 C9_5 1_555 1_555
C10_5 C9_5 1_555 1_555
H7_5 C10_5 1_555 1_555
C11_5 C10_5 1_555 1_555
C12_5 C7_5 1_555 1_555
H8_5 C12_5 1_555 1_555
C13_5 O1_5 1_555 1_555
C14_5 C2_5 1_555 1_555
C15_5 C4_5 1_555 1_555
O22_2 C15_5 1_555 1_555
O8_5 H9_5 1_555 1_555
C16_5 C1_5 1_555 1_555
C17_5 H10_5 1_555 1_555
C18_5 H11_5 1_555 1_555
C19_5 C18_5 1_555 1_555
C20_5 C19_5 1_555 1_555
H12_5 C20_5 1_555 1_555
C21_5 C20_5 1_555 1_555
H13_5 C21_5 1_555 1_555
C22_5 C21_5 1_555 1_555
C23_5 C18_5 1_555 1_555
C24_5 C23_5 1_555 1_555
H14_5 C24_5 1_555 1_555
C25_5 C24_5 1_555 1_555
H15_5 C25_5 1_555 1_555
C26_5 C25_5 1_555 1_555
C27_5 C22_5 1_555 1_555
H16_5 C27_5 1_555 1_555
C28_5 O8_5 1_555 1_555
C29_5 C17_5 1_555 1_555
C30_5 C19_5 1_555 1_555
O22_3 C30_5 1_555 1_555
O29_4 C30_5 1_555 1_555
O11_5 H17_5 1_555 1_555
C31_5 H18_5 1_555 1_555
C32_5 C31_5 1_555 1_555
C33_5 C32_5 1_555 1_555
H19_5 C33_5 1_555 1_555
C34_5 C33_5 1_555 1_555
H20_5 C34_5 1_555 1_555
C35_5 C34_5 1_555 1_555
C36_5 C31_5 1_555 1_555
C37_5 C36_5 1_555 1_555
H21_5 C37_5 1_555 1_555
C38_5 C37_5 1_555 1_555
H22_5 C38_5 1_555 1_555
C39_5 C38_5 1_555 1_555
C40_5 C35_5 1_555 1_555
H23_5 C40_5 1_555 1_555
C41_5 C1_5 1_555 1_555
C42_5 C2_5 1_555 1_555
C43_5 C32_5 1_555 1_555
O23_5 C43_5 1_555 1_555
O30_6 C43_5 1_555 1_555
O14_5 H24_5 1_555 1_555
C44_5 H25_5 1_555 1_555
C45_5 C44_5 1_555 1_555
C46_5 C45_5 1_555 1_555
H26_5 C46_5 1_555 1_555
C47_5 C46_5 1_555 1_555
H27_5 C47_5 1_555 1_555
C48_5 C47_5 1_555 1_555
C49_5 C44_5 1_555 1_555
C50_5 C49_5 1_555 1_555
H28_5 C50_5 1_555 1_555
C51_5 C50_5 1_555 1_555
H29_5 C51_5 1_555 1_555
C52_5 C51_5 1_555 1_555
C53_5 C48_5 1_555 1_555
H30_5 C53_5 1_555 1_555
C54_5 C16_5 1_555 1_555
C55_5 C17_5 1_555 1_555
C56_5 C45_5 1_555 1_555
O23_8 C56_5 1_555 1_555
O30_7 C56_5 1_555 1_555
C7_5 C8_5 1_555 1_555
C11_5 C12_5 1_555 1_555
C11_5 C14_5 1_555 1_555
C13_5 C14_5 1_555 1_555
C15_5 O29 1_555 1_555
C16_5 C28_5 1_555 1_555
C22_5 C23_5 1_555 1_555
C26_5 C27_5 1_555 1_555
C26_5 C29_5 1_555 1_555
C28_5 C29_5 1_555 1_555
O11_5 C41_5 1_555 1_555
C35_5 C36_5 1_555 1_555
C39_5 C40_5 1_555 1_555
C39_5 C42_5 1_555 1_555
C41_5 C42_5 1_555 1_555
O14_5 C54_5 1_555 1_555
C48_5 C49_5 1_555 1_555
C52_5 C53_5 1_555 1_555
C52_5 C55_5 1_555 1_555
C54_5 C55_5 1_555 1_555
O20_2 H31_5 1_555 1_555
O17_2 H33_5 1_555 1_555
O1_6 H1_6 1_555 1_555
C1_6 C13_6 1_555 1_555
C2_6 H2_6 1_555 1_555
C3_6 H3_6 1_555 1_555
C4_6 C3_6 1_555 1_555
C5_6 C4_6 1_555 1_555
H4_6 C5_6 1_555 1_555
C6_6 C5_6 1_555 1_555
H5_6 C6_6 1_555 1_555
C7_6 C6_6 1_555 1_555
C8_6 C3_6 1_555 1_555
C9_6 C8_6 1_555 1_555
H6_6 C9_6 1_555 1_555
C10_6 C9_6 1_555 1_555
H7_6 C10_6 1_555 1_555
C11_6 C10_6 1_555 1_555
C12_6 C7_6 1_555 1_555
H8_6 C12_6 1_555 1_555
C13_6 O1_6 1_555 1_555
C14_6 C2_6 1_555 1_555
C15_6 C4_6 1_555 1_555
O23_2 C15_6 1_555 1_555
O8_6 H9_6 1_555 1_555
C16_6 C1_6 1_555 1_555
C17_6 H10_6 1_555 1_555
C18_6 H11_6 1_555 1_555
C19_6 C18_6 1_555 1_555
C20_6 C19_6 1_555 1_555
H12_6 C20_6 1_555 1_555
C21_6 C20_6 1_555 1_555
H13_6 C21_6 1_555 1_555
C22_6 C21_6 1_555 1_555
C23_6 C18_6 1_555 1_555
C24_6 C23_6 1_555 1_555
H14_6 C24_6 1_555 1_555
C25_6 C24_6 1_555 1_555
H15_6 C25_6 1_555 1_555
C26_6 C25_6 1_555 1_555
C27_6 C22_6 1_555 1_555
H16_6 C27_6 1_555 1_555
C28_6 O8_6 1_555 1_555
C29_6 C17_6 1_555 1_555
C30_6 C19_6 1_555 1_555
O23_3 C30_6 1_555 1_555
O30_4 C30_6 1_555 1_555
O11_6 H17_6 1_555 1_555
C31_6 H18_6 1_555 1_555
C32_6 C31_6 1_555 1_555
C33_6 C32_6 1_555 1_555
H19_6 C33_6 1_555 1_555
C34_6 C33_6 1_555 1_555
H20_6 C34_6 1_555 1_555
C35_6 C34_6 1_555 1_555
C36_6 C31_6 1_555 1_555
C37_6 C36_6 1_555 1_555
H21_6 C37_6 1_555 1_555
C38_6 C37_6 1_555 1_555
H22_6 C38_6 1_555 1_555
C39_6 C38_6 1_555 1_555
C40_6 C35_6 1_555 1_555
H23_6 C40_6 1_555 1_555
C41_6 C1_6 1_555 1_555
C42_6 C2_6 1_555 1_555
C43_6 C32_6 1_555 1_555
O22_5 C43_6 1_555 1_555
O29_6 C43_6 1_555 1_555
O14_6 H24_6 1_555 1_555
C44_6 H25_6 1_555 1_555
C45_6 C44_6 1_555 1_555
C46_6 C45_6 1_555 1_555
H26_6 C46_6 1_555 1_555
C47_6 C46_6 1_555 1_555
H27_6 C47_6 1_555 1_555
C48_6 C47_6 1_555 1_555
C49_6 C44_6 1_555 1_555
C50_6 C49_6 1_555 1_555
H28_6 C50_6 1_555 1_555
C51_6 C50_6 1_555 1_555
H29_6 C51_6 1_555 1_555
C52_6 C51_6 1_555 1_555
C53_6 C48_6 1_555 1_555
H30_6 C53_6 1_555 1_555
C54_6 C16_6 1_555 1_555
C55_6 C17_6 1_555 1_555
C56_6 C45_6 1_555 1_555
O22_8 C56_6 1_555 1_555
O29_7 C56_6 1_555 1_555
C7_6 C8_6 1_555 1_555
C11_6 C12_6 1_555 1_555
C11_6 C14_6 1_555 1_555
C13_6 C14_6 1_555 1_555
C15_6 O30 1_555 1_555
C16_6 C28_6 1_555 1_555
C22_6 C23_6 1_555 1_555
C26_6 C27_6 1_555 1_555
C26_6 C29_6 1_555 1_555
C28_6 C29_6 1_555 1_555
O11_6 C41_6 1_555 1_555
C35_6 C36_6 1_555 1_555
C39_6 C40_6 1_555 1_555
C39_6 C42_6 1_555 1_555
C41_6 C42_6 1_555 1_555
O14_6 C54_6 1_555 1_555
C48_6 C49_6 1_555 1_555
C52_6 C53_6 1_555 1_555
C52_6 C55_6 1_555 1_555
C54_6 C55_6 1_555 1_555
O6_3 H35_6 1_555 1_555
O3_3 H37_6 1_555 1_555
O3_4 H38_6 1_555 1_555
O1_7 H1_7 1_555 1_555
C1_7 C13_7 1_555 1_555
C2_7 H2_7 1_555 1_555
C3_7 H3_7 1_555 1_555
C4_7 C3_7 1_555 1_555
C5_7 C4_7 1_555 1_555
H4_7 C5_7 1_555 1_555
C6_7 C5_7 1_555 1_555
H5_7 C6_7 1_555 1_555
C7_7 C6_7 1_555 1_555
C8_7 C3_7 1_555 1_555
C9_7 C8_7 1_555 1_555
H6_7 C9_7 1_555 1_555
C10_7 C9_7 1_555 1_555
H7_7 C10_7 1_555 1_555
C11_7 C10_7 1_555 1_555
C12_7 C7_7 1_555 1_555
H8_7 C12_7 1_555 1_555
C13_7 O1_7 1_555 1_555
C14_7 C2_7 1_555 1_555
C15_7 C4_7 1_555 1_555
O22 C15_7 1_555 1_555
O8_7 H9_7 1_555 1_555
C16_7 C1_7 1_555 1_555
C17_7 H10_7 1_555 1_555
C18_7 H11_7 1_555 1_555
C19_7 C18_7 1_555 1_555
C20_7 C19_7 1_555 1_555
H12_7 C20_7 1_555 1_555
C21_7 C20_7 1_555 1_555
H13_7 C21_7 1_555 1_555
C22_7 C21_7 1_555 1_555
C23_7 C18_7 1_555 1_555
C24_7 C23_7 1_555 1_555
H14_7 C24_7 1_555 1_555
C25_7 C24_7 1_555 1_555
H15_7 C25_7 1_555 1_555
C26_7 C25_7 1_555 1_555
C27_7 C22_7 1_555 1_555
H16_7 C27_7 1_555 1_555
C28_7 O8_7 1_555 1_555
C29_7 C17_7 1_555 1_555
C30_7 C19_7 1_555 1_555
O22_4 C30_7 1_555 1_555
O29_3 C30_7 1_555 1_555
O11_7 H17_7 1_555 1_555
C31_7 H18_7 1_555 1_555
C32_7 C31_7 1_555 1_555
C33_7 C32_7 1_555 1_555
H19_7 C33_7 1_555 1_555
C34_7 C33_7 1_555 1_555
H20_7 C34_7 1_555 1_555
C35_7 C34_7 1_555 1_555
C36_7 C31_7 1_555 1_555
C37_7 C36_7 1_555 1_555
H21_7 C37_7 1_555 1_555
C38_7 C37_7 1_555 1_555
H22_7 C38_7 1_555 1_555
C39_7 C38_7 1_555 1_555
C40_7 C35_7 1_555 1_555
H23_7 C40_7 1_555 1_555
C41_7 C1_7 1_555 1_555
C42_7 C2_7 1_555 1_555
C43_7 C32_7 1_555 1_555
O23_6 C43_7 1_555 1_555
O30_5 C43_7 1_555 1_555
O14_7 H24_7 1_555 1_555
C44_7 H25_7 1_555 1_555
C45_7 C44_7 1_555 1_555
C46_7 C45_7 1_555 1_555
H26_7 C46_7 1_555 1_555
C47_7 C46_7 1_555 1_555
H27_7 C47_7 1_555 1_555
C48_7 C47_7 1_555 1_555
C49_7 C44_7 1_555 1_555
C50_7 C49_7 1_555 1_555
H28_7 C50_7 1_555 1_555
C51_7 C50_7 1_555 1_555
H29_7 C51_7 1_555 1_555
C52_7 C51_7 1_555 1_555
C53_7 C48_7 1_555 1_555
H30_7 C53_7 1_555 1_555
C54_7 C16_7 1_555 1_555
C55_7 C17_7 1_555 1_555
C56_7 C45_7 1_555 1_555
O23_7 C56_7 1_555 1_555
O30_8 C56_7 1_555 1_555
C7_7 C8_7 1_555 1_555
C11_7 C12_7 1_555 1_555
C11_7 C14_7 1_555 1_555
C13_7 C14_7 1_555 1_555
C15_7 O29_2 1_555 1_555
C16_7 C28_7 1_555 1_555
C22_7 C23_7 1_555 1_555
C26_7 C27_7 1_555 1_555
C26_7 C29_7 1_555 1_555
C28_7 C29_7 1_555 1_555
O11_7 C41_7 1_555 1_555
C35_7 C36_7 1_555 1_555
C39_7 C40_7 1_555 1_555
C39_7 C42_7 1_555 1_555
C41_7 C42_7 1_555 1_555
O14_7 C54_7 1_555 1_555
C48_7 C49_7 1_555 1_555
C52_7 C53_7 1_555 1_555
C52_7 C55_7 1_555 1_555
C54_7 C55_7 1_555 1_555
O20_3 H31_6 1_555 1_555
O17_3 H33_6 1_555 1_555
O17_4 H34_6 1_555 1_555
O1_8 H1_8 1_555 1_555
C1_8 C13_8 1_555 1_555
C2_8 H2_8 1_555 1_555
C3_8 H3_8 1_555 1_555
C4_8 C3_8 1_555 1_555
C5_8 C4_8 1_555 1_555
H4_8 C5_8 1_555 1_555
C6_8 C5_8 1_555 1_555
H5_8 C6_8 1_555 1_555
C7_8 C6_8 1_555 1_555
C8_8 C3_8 1_555 1_555
C9_8 C8_8 1_555 1_555
H6_8 C9_8 1_555 1_555
C10_8 C9_8 1_555 1_555
H7_8 C10_8 1_555 1_555
C11_8 C10_8 1_555 1_555
C12_8 C7_8 1_555 1_555
H8_8 C12_8 1_555 1_555
C13_8 O1_8 1_555 1_555
C14_8 C2_8 1_555 1_555
C15_8 C4_8 1_555 1_555
O23 C15_8 1_555 1_555
O8_8 H9_8 1_555 1_555
C16_8 C1_8 1_555 1_555
C17_8 H10_8 1_555 1_555
C18_8 H11_8 1_555 1_555
C19_8 C18_8 1_555 1_555
C20_8 C19_8 1_555 1_555
H12_8 C20_8 1_555 1_555
C21_8 C20_8 1_555 1_555
H13_8 C21_8 1_555 1_555
C22_8 C21_8 1_555 1_555
C23_8 C18_8 1_555 1_555
C24_8 C23_8 1_555 1_555
H14_8 C24_8 1_555 1_555
C25_8 C24_8 1_555 1_555
H15_8 C25_8 1_555 1_555
C26_8 C25_8 1_555 1_555
C27_8 C22_8 1_555 1_555
H16_8 C27_8 1_555 1_555
C28_8 O8_8 1_555 1_555
C29_8 C17_8 1_555 1_555
C30_8 C19_8 1_555 1_555
O23_4 C30_8 1_555 1_555
O30_3 C30_8 1_555 1_555
O11_8 H17_8 1_555 1_555
C31_8 H18_8 1_555 1_555
C32_8 C31_8 1_555 1_555
C33_8 C32_8 1_555 1_555
H19_8 C33_8 1_555 1_555
C34_8 C33_8 1_555 1_555
H20_8 C34_8 1_555 1_555
C35_8 C34_8 1_555 1_555
C36_8 C31_8 1_555 1_555
C37_8 C36_8 1_555 1_555
H21_8 C37_8 1_555 1_555
C38_8 C37_8 1_555 1_555
H22_8 C38_8 1_555 1_555
C39_8 C38_8 1_555 1_555
C40_8 C35_8 1_555 1_555
H23_8 C40_8 1_555 1_555
C41_8 C1_8 1_555 1_555
C42_8 C2_8 1_555 1_555
C43_8 C32_8 1_555 1_555
O22_6 C43_8 1_555 1_555
O29_5 C43_8 1_555 1_555
O14_8 H24_8 1_555 1_555
C44_8 H25_8 1_555 1_555
C45_8 C44_8 1_555 1_555
C46_8 C45_8 1_555 1_555
H26_8 C46_8 1_555 1_555
C47_8 C46_8 1_555 1_555
H27_8 C47_8 1_555 1_555
C48_8 C47_8 1_555 1_555
C49_8 C44_8 1_555 1_555
C50_8 C49_8 1_555 1_555
H28_8 C50_8 1_555 1_555
C51_8 C50_8 1_555 1_555
H29_8 C51_8 1_555 1_555
C52_8 C51_8 1_555 1_555
C53_8 C48_8 1_555 1_555
H30_8 C53_8 1_555 1_555
C54_8 C16_8 1_555 1_555
C55_8 C17_8 1_555 1_555
C56_8 C45_8 1_555 1_555
O22_7 C56_8 1_555 1_555
O29_8 C56_8 1_555 1_555
C7_8 C8_8 1_555 1_555
C11_8 C12_8 1_555 1_555
C11_8 C14_8 1_555 1_555
C13_8 C14_8 1_555 1_555
C15_8 O30_2 1_555 1_555
C16_8 C28_8 1_555 1_555
C22_8 C23_8 1_555 1_555
C26_8 C27_8 1_555 1_555
C26_8 C29_8 1_555 1_555
C28_8 C29_8 1_555 1_555
O11_8 C41_8 1_555 1_555
C35_8 C36_8 1_555 1_555
C39_8 C40_8 1_555 1_555
C39_8 C42_8 1_555 1_555
C41_8 C42_8 1_555 1_555
O14_8 C54_8 1_555 1_555
C48_8 C49_8 1_555 1_555
C52_8 C53_8 1_555 1_555
C52_8 C55_8 1_555 1_555
C54_8 C55_8 1_555 1_555
O17_9 H34_7 1_555 1_555
O20_10 H31_7 1_555 1_555
O17_10 H33_7 1_555 1_555
O3_9 H38_7 1_555 1_555
O6_10 H35_7 1_555 1_555
O3_10 H37_7 1_555 1_555
O6_11 H35_8 1_555 1_555
O3_11 H37_8 1_555 1_555
O3_12 H38_8 1_555 1_555
O20_11 H31_8 1_555 1_555
O17_11 H33_8 1_555 1_555
O17_12 H34_8 1_555 1_555

#END
