
###############################################################################
#
# This file contains modified crystal structure data generated from the
# MOF subset of the Cambridge Structural Database (CSD) v543 
# hosted by the Cambridge Crystallographic Data Centre (CCDC).
#
# This work is licensed under the Creative Commons
# Attribution-NonCommercial-ShareAlike 4.0 International License.
# To view a copy of this license, visit
# http://creativecommons.org/licenses/by-nc-sa/4.0/
# or send a letter to
# Creative Commons, PO Box 1866, Mountain View, CA 94042, USA.
#
# CIF created using the CSD Python API on 29 September 2022
# The structure has been converted into the P1 space group
# The structure has a 3D framework
# The original CSD entry ZUKXIP01 is in the orthorhombic crystal system
# The framework has been calculated to contain at least 10.0% void space
# The void calculation uses a probe of radius 1.32A, grid spacing 0.4
# H atom positions have been added when not included in the experimental data
# Generated hydrogen atom positions removed from atoms on special positions
#
###############################################################################

data_ZUKXIP01
_chemical_formula_moiety         '(C320 H432 O192 Zr42)n'
_symmetry_cell_setting           triclinic
_symmetry_space_group_name_H-M   'P 1'
_symmetry_Int_Tables_number      1
_space_group_name_Hall           'P 1'
loop_
_symmetry_equiv_pos_site_id
_symmetry_equiv_pos_as_xyz
1 x,y,z
_cell_length_a                   18.1834(15)
_cell_length_b                   33.744(2)
_cell_length_c                   34.489(2)
_cell_angle_alpha                90
_cell_angle_beta                 90
_cell_angle_gamma                90
_cell_volume                     21161.8
loop_
_atom_site_label
_atom_site_type_symbol
_atom_site_fract_x
_atom_site_fract_y
_atom_site_fract_z
Zr1 Zr 0.0000 0.5000 0.07076(3)
Zr2 Zr 0.09749(8) 0.44739(3) 0.0000
O1 O 0.1345(4) 0.42501(16) 0.05932(15)
C1 C 0.2190(6) 0.3342(2) 0.2189(2)
C2 C 0.2500 0.3542(3) 0.2500
H1 H 0.2500 0.3817 0.2500
C3 C 0.1205(7) 0.4142(2) 0.1630(2)
H2 H 0.0894 0.4354 0.1682
C4 C 0.1891(6) 0.3751(2) 0.1184(2)
H3 H 0.2063 0.3704 0.0934
C5 C 0.1425(6) 0.4067(2) 0.1255(2)
C6 C 0.2098(6) 0.3506(2) 0.1482(2)
H4 H 0.2380 0.3283 0.1429
C7 C 0.1895(6) 0.3585(2) 0.1861(2)
C8 C 0.1144(6) 0.4323(2) 0.0938(2)
C9 C 0.1444(7) 0.3903(2) 0.1928(2)
H5 H 0.1296 0.3959 0.2181
O2 O 0.0980(6) 0.5000 0.0351(2)
O3 O 0.0892(6) 0.3820(2) 0.0000
O4 O 0.2196(5) 0.4487(2) 0.0000
O5 O 0.0720(4) 0.46066(14) 0.10353(13)
O6 O 0.0000 0.4469(3) 0.0342(2)
O7 O 0.1742(5) 0.2726(2) 0.1904(2)
H6 H 0.2021 0.2635 0.1740
C10 C 0.2168(6) 0.2928(2) 0.2201(2)
C11 C 0.2500 0.2719(3) 0.2500
O8 O 0.1345(4) 0.07499(16) 0.44068(15)
C12 C 0.2190(6) 0.1658(2) 0.2811(2)
C13 C 0.2500 0.1458(3) 0.2500
H7 H 0.2500 0.1183 0.2500
C14 C 0.1205(7) 0.0858(2) 0.3370(2)
H8 H 0.0894 0.0646 0.3318
C15 C 0.1891(6) 0.1249(2) 0.3816(2)
H9 H 0.2063 0.1296 0.4066
C16 C 0.1425(6) 0.0933(2) 0.3745(2)
C17 C 0.2098(6) 0.1494(2) 0.3518(2)
H10 H 0.2380 0.1717 0.3571
C18 C 0.1895(6) 0.1415(2) 0.3139(2)
C19 C 0.1144(6) 0.0677(2) 0.4062(2)
C20 C 0.1444(7) 0.1097(2) 0.3072(2)
H11 H 0.1296 0.1041 0.2819
O9 O 0.0720(4) 0.03934(14) 0.39647(13)
O10 O 0.1742(5) 0.2274(2) 0.3096(2)
H12 H 0.2021 0.2365 0.3260
C21 C 0.2168(6) 0.2072(2) 0.2799(2)
C22 C 0.2500 0.2281(3) 0.2500
O11 O 0.3655(4) 0.42501(16) 0.44068(15)
C23 C 0.2810(6) 0.3342(2) 0.2811(2)
C24 C 0.3795(7) 0.4142(2) 0.3370(2)
H13 H 0.4106 0.4354 0.3318
C25 C 0.3109(6) 0.3751(2) 0.3816(2)
H14 H 0.2937 0.3704 0.4066
C26 C 0.3575(6) 0.4067(2) 0.3745(2)
C27 C 0.2902(6) 0.3506(2) 0.3518(2)
H15 H 0.2620 0.3283 0.3571
C28 C 0.3105(6) 0.3585(2) 0.3139(2)
C29 C 0.3856(6) 0.4323(2) 0.4062(2)
C30 C 0.3556(7) 0.3903(2) 0.3072(2)
H16 H 0.3704 0.3959 0.2819
O12 O 0.4280(4) 0.46066(14) 0.39647(13)
O13 O 0.3258(5) 0.2726(2) 0.3096(2)
H17 H 0.2979 0.2635 0.3260
C31 C 0.2832(6) 0.2928(2) 0.2799(2)
O14 O 0.3655(4) 0.07499(16) 0.05932(15)
C32 C 0.2810(6) 0.1658(2) 0.2189(2)
C33 C 0.3795(7) 0.0858(2) 0.1630(2)
H18 H 0.4106 0.0646 0.1682
C34 C 0.3109(6) 0.1249(2) 0.1184(2)
H19 H 0.2937 0.1296 0.0934
C35 C 0.3575(6) 0.0933(2) 0.1255(2)
C36 C 0.2902(6) 0.1494(2) 0.1482(2)
H20 H 0.2620 0.1717 0.1429
C37 C 0.3105(6) 0.1415(2) 0.1861(2)
C38 C 0.3856(6) 0.0677(2) 0.0938(2)
C39 C 0.3556(7) 0.1097(2) 0.1928(2)
H21 H 0.3704 0.1041 0.2181
O15 O 0.4280(4) 0.03934(14) 0.10353(13)
O16 O 0.3258(5) 0.2274(2) 0.1904(2)
H22 H 0.2979 0.2365 0.1740
C40 C 0.2832(6) 0.2072(2) 0.2201(2)
O20 O 0.0000 0.5531(3) 0.0342(2)
Zr4 Zr -0.0000 0.0000 0.42924(3)
Zr5 Zr 0.5000 0.5000 0.42924(3)
Zr6 Zr 0.5000 0.0000 0.07076(3)
Zr7 Zr 0.09749(8) 0.55261(3) 0.0000
Zr9 Zr 0.09749(8) 0.05261(3) 0.5000
Zr10 Zr 0.40251(8) 0.44739(3) 0.5000
Zr11 Zr 0.40251(8) 0.05261(3) 0.0000
O28 O 0.0720(4) 0.53934(14) 0.10353(13)
Zr2_2 Zr 0.09749(8) 0.44739(3) 1.0000
O3_2 O 0.0892(6) 0.3820(2) 1.0000
O4_2 O 0.2196(5) 0.4487(2) 1.0000
Zr7_2 Zr 0.09749(8) 0.55261(3) 1.0000
Zr11_2 Zr 0.40251(8) 0.05261(3) 1.0000
O23 O 0.1345(4) 0.42501(16) 0.94068(15)
O24 O 0.0980(6) 0.5000 0.9649(2)
O29 O -0.0000 0.5531(3) 0.9658(2)
O30 O -0.0000 0.4469(3) 0.9658(2)
Zr4_2 Zr 0.0000 1.0000 0.42924(3)
Zr6_2 Zr 0.5000 1.0000 0.07076(3)
Zr1_2 Zr 1.0000 0.5000 0.07076(3)
O6_2 O 1.0000 0.4469(3) 0.0342(2)
Zr3 Zr 0.90251(8) 0.55261(3) 0.0000
O17 O 0.9020(6) 0.5000 0.0351(2)
O18 O 0.9108(6) 0.6180(2) 0.0000
O19 O 0.7804(5) 0.5513(2) 0.0000
O20_2 O 1.0000 0.5531(3) 0.0342(2)
Zr4_3 Zr 1.0000 0.0000 0.42924(3)
Zr8 Zr 0.90251(8) 0.44739(3) 0.0000
O21 O 0.8655(4) 0.57499(16) 0.05932(15)
O26 O 0.9280(4) 0.53934(14) 0.10353(13)
O27 O 0.9280(4) 0.46066(14) 0.10353(13)
Zr3_2 Zr 0.90251(8) 0.55261(3) 1.0000
O18_2 O 0.9108(6) 0.6180(2) 1.0000
O19_2 O 0.7804(5) 0.5513(2) 1.0000
Zr8_2 Zr 0.90251(8) 0.44739(3) 1.0000
O22 O 0.8655(4) 0.57499(16) 0.94068(15)
O25 O 0.9020(6) 0.5000 0.9649(2)
O29_2 O 1.0000 0.5531(3) 0.9658(2)
O30_2 O 1.0000 0.4469(3) 0.9658(2)
Zr4_4 Zr 1.0000 1.0000 0.42924(3)
C1_2 C 0.7810(6) 0.6658(2) 0.2189(2)
C2_2 C 0.7500 0.6458(3) 0.2500
H1_2 H 0.7500 0.6183 0.2500
C3_2 C 0.8795(7) 0.5858(2) 0.1630(2)
H2_2 H 0.9106 0.5646 0.1682
C4_2 C 0.8109(6) 0.6249(2) 0.1184(2)
H3_2 H 0.7937 0.6296 0.0934
C5_2 C 0.8575(6) 0.5933(2) 0.1255(2)
C6_2 C 0.7902(6) 0.6494(2) 0.1482(2)
H4_2 H 0.7620 0.6717 0.1429
C7_2 C 0.8105(6) 0.6415(2) 0.1861(2)
C8_2 C 0.8856(6) 0.5677(2) 0.0938(2)
C9_2 C 0.8556(7) 0.6097(2) 0.1928(2)
H5_2 H 0.8704 0.6041 0.2181
O7_2 O 0.8258(5) 0.7274(2) 0.1904(2)
H6_2 H 0.7979 0.7365 0.1740
C10_2 C 0.7832(6) 0.7072(2) 0.2201(2)
C11_2 C 0.7500 0.7281(3) 0.2500
O8_2 O 0.8655(4) 0.92501(16) 0.44068(15)
C12_2 C 0.7810(6) 0.8342(2) 0.2811(2)
C13_2 C 0.7500 0.8542(3) 0.2500
H7_2 H 0.7500 0.8817 0.2500
C14_2 C 0.8795(7) 0.9142(2) 0.3370(2)
H8_2 H 0.9106 0.9354 0.3318
C15_2 C 0.8109(6) 0.8751(2) 0.3816(2)
H9_2 H 0.7937 0.8704 0.4066
C16_2 C 0.8575(6) 0.9067(2) 0.3745(2)
C17_2 C 0.7902(6) 0.8506(2) 0.3518(2)
H10_2 H 0.7620 0.8283 0.3571
C18_2 C 0.8105(6) 0.8585(2) 0.3139(2)
C19_2 C 0.8856(6) 0.9323(2) 0.4062(2)
C20_2 C 0.8556(7) 0.8903(2) 0.3072(2)
H11_2 H 0.8704 0.8959 0.2819
O9_2 O 0.9280(4) 0.96066(14) 0.39647(13)
O10_2 O 0.8258(5) 0.7726(2) 0.3096(2)
H12_2 H 0.7979 0.7635 0.3260
C21_2 C 0.7832(6) 0.7928(2) 0.2799(2)
C22_2 C 0.7500 0.7719(3) 0.2500
O11_2 O 0.6345(4) 0.57499(16) 0.44068(15)
C23_2 C 0.7190(6) 0.6658(2) 0.2811(2)
C24_2 C 0.6205(7) 0.5858(2) 0.3370(2)
H13_2 H 0.5894 0.5646 0.3318
C25_2 C 0.6891(6) 0.6249(2) 0.3816(2)
H14_2 H 0.7063 0.6296 0.4066
C26_2 C 0.6425(6) 0.5933(2) 0.3745(2)
C27_2 C 0.7098(6) 0.6494(2) 0.3518(2)
H15_2 H 0.7380 0.6717 0.3571
C28_2 C 0.6895(6) 0.6415(2) 0.3139(2)
C29_2 C 0.6144(6) 0.5677(2) 0.4062(2)
C30_2 C 0.6444(7) 0.6097(2) 0.3072(2)
H16_2 H 0.6296 0.6041 0.2819
O12_2 O 0.5720(4) 0.53934(14) 0.39647(13)
O13_2 O 0.6742(5) 0.7274(2) 0.3096(2)
H17_2 H 0.7021 0.7365 0.3260
C31_2 C 0.7168(6) 0.7072(2) 0.2799(2)
O14_2 O 0.6345(4) 0.92501(16) 0.05932(15)
C32_2 C 0.7190(6) 0.8342(2) 0.2189(2)
C33_2 C 0.6205(7) 0.9142(2) 0.1630(2)
H18_2 H 0.5894 0.9354 0.1682
C34_2 C 0.6891(6) 0.8751(2) 0.1184(2)
H19_2 H 0.7063 0.8704 0.0934
C35_2 C 0.6425(6) 0.9067(2) 0.1255(2)
C36_2 C 0.7098(6) 0.8506(2) 0.1482(2)
H20_2 H 0.7380 0.8283 0.1429
C37_2 C 0.6895(6) 0.8585(2) 0.1861(2)
C38_2 C 0.6144(6) 0.9323(2) 0.0938(2)
C39_2 C 0.6444(7) 0.8903(2) 0.1928(2)
H21_2 H 0.6296 0.8959 0.2181
O15_2 O 0.5720(4) 0.96066(14) 0.10353(13)
O16_2 O 0.6742(5) 0.7726(2) 0.1904(2)
H22_2 H 0.7021 0.7635 0.1740
C40_2 C 0.7168(6) 0.7928(2) 0.2201(2)
Zr9_2 Zr 0.90251(8) 0.94739(3) 0.5000
Zr10_2 Zr 0.59749(8) 0.55261(3) 0.5000
Zr11_3 Zr 0.59749(8) 0.94739(3) 0.0000
Zr11_4 Zr 0.59749(8) 0.94739(3) 1.0000
Zr4_5 Zr -0.0000 0.0000 0.57076(3)
Zr6_3 Zr 0.5000 0.0000 0.92924(3)
O3_3 O 0.0892(6) 0.6180(2) 0.0000
O4_3 O 0.2196(5) 0.5513(2) 0.0000
Zr11_5 Zr 0.40251(8) 0.94739(3) 0.0000
O23_2 O 0.1345(4) 0.57499(16) 0.05932(15)
Zr1_3 Zr 0.0000 0.5000 0.92924(3)
O1_2 O 0.1345(4) 0.57499(16) 0.94068(15)
C1_3 C 0.2190(6) 0.6658(2) 0.7811(2)
C2_3 C 0.2500 0.6458(3) 0.7500
H1_3 H 0.2500 0.6183 0.7500
C3_3 C 0.1205(7) 0.5858(2) 0.8370(2)
H2_3 H 0.0894 0.5646 0.8318
C4_3 C 0.1891(6) 0.6249(2) 0.8816(2)
H3_3 H 0.2063 0.6296 0.9066
C5_3 C 0.1425(6) 0.5933(2) 0.8745(2)
C6_3 C 0.2098(6) 0.6494(2) 0.8518(2)
H4_3 H 0.2380 0.6717 0.8571
C7_3 C 0.1895(6) 0.6415(2) 0.8139(2)
C8_3 C 0.1144(6) 0.5677(2) 0.9062(2)
C9_3 C 0.1444(7) 0.6097(2) 0.8072(2)
H5_3 H 0.1296 0.6041 0.7819
O3_4 O 0.0892(6) 0.6180(2) 1.0000
O4_4 O 0.2196(5) 0.5513(2) 1.0000
O5_2 O 0.0720(4) 0.53934(14) 0.89647(13)
O7_3 O 0.1742(5) 0.7274(2) 0.8096(2)
H6_3 H 0.2021 0.7365 0.8260
C10_3 C 0.2168(6) 0.7072(2) 0.7799(2)
C11_3 C 0.2500 0.7281(3) 0.7500
O8_3 O 0.1345(4) 0.92501(16) 0.55932(15)
C12_3 C 0.2190(6) 0.8342(2) 0.7189(2)
C13_3 C 0.2500 0.8542(3) 0.7500
H7_3 H 0.2500 0.8817 0.7500
C14_3 C 0.1205(7) 0.9142(2) 0.6630(2)
H8_3 H 0.0894 0.9354 0.6682
C15_3 C 0.1891(6) 0.8751(2) 0.6184(2)
H9_3 H 0.2063 0.8704 0.5934
C16_3 C 0.1425(6) 0.9067(2) 0.6255(2)
C17_3 C 0.2098(6) 0.8506(2) 0.6482(2)
H10_3 H 0.2380 0.8283 0.6429
C18_3 C 0.1895(6) 0.8585(2) 0.6861(2)
C19_3 C 0.1144(6) 0.9323(2) 0.5938(2)
C20_3 C 0.1444(7) 0.8903(2) 0.6928(2)
H11_3 H 0.1296 0.8959 0.7181
O9_3 O 0.0720(4) 0.96066(14) 0.60353(13)
O10_3 O 0.1742(5) 0.7726(2) 0.6904(2)
H12_3 H 0.2021 0.7635 0.6740
C21_3 C 0.2168(6) 0.7928(2) 0.7201(2)
C22_3 C 0.2500 0.7719(3) 0.7500
O11_3 O 0.3655(4) 0.57499(16) 0.55932(15)
C23_3 C 0.2810(6) 0.6658(2) 0.7189(2)
C24_3 C 0.3795(7) 0.5858(2) 0.6630(2)
H13_3 H 0.4106 0.5646 0.6682
C25_3 C 0.3109(6) 0.6249(2) 0.6184(2)
H14_3 H 0.2937 0.6296 0.5934
C26_3 C 0.3575(6) 0.5933(2) 0.6255(2)
C27_3 C 0.2902(6) 0.6494(2) 0.6482(2)
H15_3 H 0.2620 0.6717 0.6429
C28_3 C 0.3105(6) 0.6415(2) 0.6861(2)
C29_3 C 0.3856(6) 0.5677(2) 0.5938(2)
C30_3 C 0.3556(7) 0.6097(2) 0.6928(2)
H16_3 H 0.3704 0.6041 0.7181
O12_3 O 0.4280(4) 0.53934(14) 0.60353(13)
O13_3 O 0.3258(5) 0.7274(2) 0.6904(2)
H17_3 H 0.2979 0.7365 0.6740
C31_3 C 0.2832(6) 0.7072(2) 0.7201(2)
O14_3 O 0.3655(4) 0.92501(16) 0.94068(15)
C32_3 C 0.2810(6) 0.8342(2) 0.7811(2)
C33_3 C 0.3795(7) 0.9142(2) 0.8370(2)
H18_3 H 0.4106 0.9354 0.8318
C34_3 C 0.3109(6) 0.8751(2) 0.8816(2)
H19_3 H 0.2937 0.8704 0.9066
C35_3 C 0.3575(6) 0.9067(2) 0.8745(2)
C36_3 C 0.2902(6) 0.8506(2) 0.8518(2)
H20_3 H 0.2620 0.8283 0.8571
C37_3 C 0.3105(6) 0.8585(2) 0.8139(2)
C38_3 C 0.3856(6) 0.9323(2) 0.9062(2)
C39_3 C 0.3556(7) 0.8903(2) 0.8072(2)
H21_3 H 0.3704 0.8959 0.7819
O15_3 O 0.4280(4) 0.96066(14) 0.89647(13)
O16_3 O 0.3258(5) 0.7726(2) 0.8096(2)
H22_3 H 0.2979 0.7635 0.8260
C40_3 C 0.2832(6) 0.7928(2) 0.7799(2)
Zr4_6 Zr 0.0000 1.0000 0.57076(3)
Zr5_2 Zr 0.5000 0.5000 0.57076(3)
Zr6_4 Zr 0.5000 1.0000 0.92924(3)
Zr9_3 Zr 0.09749(8) 0.94739(3) 0.5000
Zr10_3 Zr 0.40251(8) 0.55261(3) 0.5000
Zr11_6 Zr 0.40251(8) 0.94739(3) 1.0000
O28_2 O 0.0720(4) 0.46066(14) 0.89647(13)
Zr4_7 Zr 1.0000 0.0000 0.57076(3)
O18_3 O 0.9108(6) 0.3820(2) 0.0000
O19_3 O 0.7804(5) 0.4487(2) 0.0000
O22_2 O 0.8655(4) 0.42501(16) 0.05932(15)
Zr1_4 Zr 1.0000 0.5000 0.92924(3)
O18_4 O 0.9108(6) 0.3820(2) 1.0000
O19_4 O 0.7804(5) 0.4487(2) 1.0000
Zr4_8 Zr 1.0000 1.0000 0.57076(3)
O21_2 O 0.8655(4) 0.42501(16) 0.94068(15)
O26_2 O 0.9280(4) 0.46066(14) 0.89647(13)
O27_2 O 0.9280(4) 0.53934(14) 0.89647(13)
Zr11_7 Zr 0.59749(8) 0.05261(3) 0.0000
C1_4 C 0.7810(6) 0.3342(2) 0.7811(2)
C2_4 C 0.7500 0.3542(3) 0.7500
H1_4 H 0.7500 0.3817 0.7500
C3_4 C 0.8795(7) 0.4142(2) 0.8370(2)
H2_4 H 0.9106 0.4354 0.8318
C4_4 C 0.8109(6) 0.3751(2) 0.8816(2)
H3_4 H 0.7937 0.3704 0.9066
C5_4 C 0.8575(6) 0.4067(2) 0.8745(2)
C6_4 C 0.7902(6) 0.3506(2) 0.8518(2)
H4_4 H 0.7620 0.3283 0.8571
C7_4 C 0.8105(6) 0.3585(2) 0.8139(2)
C8_4 C 0.8856(6) 0.4323(2) 0.9062(2)
C9_4 C 0.8556(7) 0.3903(2) 0.8072(2)
H5_4 H 0.8704 0.3959 0.7819
O7_4 O 0.8258(5) 0.2726(2) 0.8096(2)
H6_4 H 0.7979 0.2635 0.8260
C10_4 C 0.7832(6) 0.2928(2) 0.7799(2)
C11_4 C 0.7500 0.2719(3) 0.7500
O8_4 O 0.8655(4) 0.07499(16) 0.55932(15)
C12_4 C 0.7810(6) 0.1658(2) 0.7189(2)
C13_4 C 0.7500 0.1458(3) 0.7500
H7_4 H 0.7500 0.1183 0.7500
C14_4 C 0.8795(7) 0.0858(2) 0.6630(2)
H8_4 H 0.9106 0.0646 0.6682
C15_4 C 0.8109(6) 0.1249(2) 0.6184(2)
H9_4 H 0.7937 0.1296 0.5934
C16_4 C 0.8575(6) 0.0933(2) 0.6255(2)
C17_4 C 0.7902(6) 0.1494(2) 0.6482(2)
H10_4 H 0.7620 0.1717 0.6429
C18_4 C 0.8105(6) 0.1415(2) 0.6861(2)
C19_4 C 0.8856(6) 0.0677(2) 0.5938(2)
C20_4 C 0.8556(7) 0.1097(2) 0.6928(2)
H11_4 H 0.8704 0.1041 0.7181
O9_4 O 0.9280(4) 0.03934(14) 0.60353(13)
O10_4 O 0.8258(5) 0.2274(2) 0.6904(2)
H12_4 H 0.7979 0.2365 0.6740
C21_4 C 0.7832(6) 0.2072(2) 0.7201(2)
C22_4 C 0.7500 0.2281(3) 0.7500
O11_4 O 0.6345(4) 0.42501(16) 0.55932(15)
C23_4 C 0.7190(6) 0.3342(2) 0.7189(2)
C24_4 C 0.6205(7) 0.4142(2) 0.6630(2)
H13_4 H 0.5894 0.4354 0.6682
C25_4 C 0.6891(6) 0.3751(2) 0.6184(2)
H14_4 H 0.7063 0.3704 0.5934
C26_4 C 0.6425(6) 0.4067(2) 0.6255(2)
C27_4 C 0.7098(6) 0.3506(2) 0.6482(2)
H15_4 H 0.7380 0.3283 0.6429
C28_4 C 0.6895(6) 0.3585(2) 0.6861(2)
C29_4 C 0.6144(6) 0.4323(2) 0.5938(2)
C30_4 C 0.6444(7) 0.3903(2) 0.6928(2)
H16_4 H 0.6296 0.3959 0.7181
O12_4 O 0.5720(4) 0.46066(14) 0.60353(13)
O13_4 O 0.6742(5) 0.2726(2) 0.6904(2)
H17_4 H 0.7021 0.2635 0.6740
C31_4 C 0.7168(6) 0.2928(2) 0.7201(2)
O14_4 O 0.6345(4) 0.07499(16) 0.94068(15)
C32_4 C 0.7190(6) 0.1658(2) 0.7811(2)
C33_4 C 0.6205(7) 0.0858(2) 0.8370(2)
H18_4 H 0.5894 0.0646 0.8318
C34_4 C 0.6891(6) 0.1249(2) 0.8816(2)
H19_4 H 0.7063 0.1296 0.9066
C35_4 C 0.6425(6) 0.0933(2) 0.8745(2)
C36_4 C 0.7098(6) 0.1494(2) 0.8518(2)
H20_4 H 0.7380 0.1717 0.8571
C37_4 C 0.6895(6) 0.1415(2) 0.8139(2)
C38_4 C 0.6144(6) 0.0677(2) 0.9062(2)
C39_4 C 0.6444(7) 0.1097(2) 0.8072(2)
H21_4 H 0.6296 0.1041 0.7819
O15_4 O 0.5720(4) 0.03934(14) 0.89647(13)
O16_4 O 0.6742(5) 0.2274(2) 0.8096(2)
H22_4 H 0.7021 0.2365 0.8260
C40_4 C 0.7168(6) 0.2072(2) 0.7799(2)
Zr9_4 Zr 0.90251(8) 0.05261(3) 0.5000
Zr10_4 Zr 0.59749(8) 0.44739(3) 0.5000
Zr11_8 Zr 0.59749(8) 0.05261(3) 1.0000
O2_2 O 0.0980(6) 0.0000 0.5351(2)
O20_3 O -0.0000 0.0531(3) 0.5342(2)
O24_2 O 0.0980(6) 0.0000 0.4649(2)
O28_3 O 0.0720(4) 0.03934(14) 0.60353(13)
O29_3 O 0.0000 0.0531(3) 0.4658(2)
O2_3 O 0.0980(6) 1.0000 0.5351(2)
O3_5 O 0.0892(6) 0.8820(2) 0.5000
O4_5 O 0.2196(5) 0.9487(2) 0.5000
O6_3 O 0.0000 0.9469(3) 0.5342(2)
O23_3 O 0.1345(4) 0.92501(16) 0.44068(15)
O24_3 O 0.0980(6) 1.0000 0.4649(2)
O30_3 O 0.0000 0.9469(3) 0.4658(2)
O17_2 O 0.9020(6) 0.0000 0.5351(2)
O18_5 O 0.9108(6) 0.1180(2) 0.5000
O19_5 O 0.7804(5) 0.0513(2) 0.5000
O20_4 O 1.0000 0.0531(3) 0.5342(2)
O22_3 O 0.8655(4) 0.07499(16) 0.44068(15)
O25_2 O 0.9020(6) 0.0000 0.4649(2)
O29_4 O 1.0000 0.0531(3) 0.4658(2)
O6_4 O 1.0000 0.9469(3) 0.5342(2)
O17_3 O 0.9020(6) 1.0000 0.5351(2)
O25_3 O 0.9020(6) 1.0000 0.4649(2)
O27_3 O 0.9280(4) 0.96066(14) 0.60353(13)
O30_4 O 1.0000 0.9469(3) 0.4658(2)
O3_6 O 0.0892(6) 0.1180(2) 0.5000
O4_6 O 0.2196(5) 0.0513(2) 0.5000
O23_4 O 0.1345(4) 0.07499(16) 0.55932(15)
O28_4 O 0.0720(4) 0.96066(14) 0.39647(13)
O27_4 O 0.9280(4) 0.03934(14) 0.39647(13)
O18_6 O 0.9108(6) 0.8820(2) 0.5000
O19_6 O 0.7804(5) 0.9487(2) 0.5000
O22_4 O 0.8655(4) 0.92501(16) 0.55932(15)
O2_4 O 0.5980(6) 0.5000 0.5351(2)
O3_7 O 0.5892(6) 0.3820(2) 0.5000
O4_7 O 0.7196(5) 0.4487(2) 0.5000
O6_5 O 0.5000 0.4469(3) 0.5342(2)
O17_4 O 0.4020(6) 0.5000 0.5351(2)
O18_7 O 0.4108(6) 0.6180(2) 0.5000
O19_7 O 0.2804(5) 0.5513(2) 0.5000
O20_5 O 0.5000 0.5531(3) 0.5342(2)
O22_5 O 0.3655(4) 0.57499(16) 0.44068(15)
O23_5 O 0.6345(4) 0.42501(16) 0.44068(15)
O24_4 O 0.5980(6) 0.5000 0.4649(2)
O25_4 O 0.4020(6) 0.5000 0.4649(2)
O27_5 O 0.4280(4) 0.46066(14) 0.60353(13)
O28_5 O 0.5720(4) 0.53934(14) 0.60353(13)
O29_5 O 0.5000 0.5531(3) 0.4658(2)
O30_5 O 0.5000 0.4469(3) 0.4658(2)
O3_8 O 0.5892(6) 0.6180(2) 0.5000
O4_8 O 0.7196(5) 0.5513(2) 0.5000
O18_8 O 0.4108(6) 0.3820(2) 0.5000
O19_8 O 0.2804(5) 0.4487(2) 0.5000
O22_6 O 0.3655(4) 0.42501(16) 0.55932(15)
O23_6 O 0.6345(4) 0.57499(16) 0.55932(15)
O27_6 O 0.4280(4) 0.53934(14) 0.39647(13)
O28_6 O 0.5720(4) 0.46066(14) 0.39647(13)
O2_5 O 0.5980(6) 0.0000 0.0351(2)
O17_5 O 0.4020(6) 0.0000 0.0351(2)
O18_9 O 0.4108(6) 0.1180(2) 0.0000
O19_9 O 0.2804(5) 0.0513(2) 0.0000
O20_6 O 0.5000 0.0531(3) 0.0342(2)
O28_7 O 0.5720(4) 0.03934(14) 0.10353(13)
O18_10 O 0.4108(6) 0.1180(2) 1.0000
O19_10 O 0.2804(5) 0.0513(2) 1.0000
O22_7 O 0.3655(4) 0.07499(16) 0.94068(15)
O24_5 O 0.5980(6) 0.0000 0.9649(2)
O25_5 O 0.4020(6) 0.0000 0.9649(2)
O29_6 O 0.5000 0.0531(3) 0.9658(2)
O2_6 O 0.5980(6) 1.0000 0.0351(2)
O3_9 O 0.5892(6) 0.8820(2) 0.0000
O4_9 O 0.7196(5) 0.9487(2) 0.0000
O6_6 O 0.5000 0.9469(3) 0.0342(2)
O17_6 O 0.4020(6) 1.0000 0.0351(2)
O27_7 O 0.4280(4) 0.96066(14) 0.10353(13)
O3_10 O 0.5892(6) 0.8820(2) 1.0000
O4_10 O 0.7196(5) 0.9487(2) 1.0000
O23_7 O 0.6345(4) 0.92501(16) 0.94068(15)
O24_6 O 0.5980(6) 1.0000 0.9649(2)
O25_6 O 0.4020(6) 1.0000 0.9649(2)
O30_6 O 0.5000 0.9469(3) 0.9658(2)
O3_11 O 0.5892(6) 0.1180(2) 0.0000
O4_11 O 0.7196(5) 0.0513(2) 0.0000
O23_8 O 0.6345(4) 0.07499(16) 0.05932(15)
O3_12 O 0.5892(6) 0.1180(2) 1.0000
O4_12 O 0.7196(5) 0.0513(2) 1.0000
O27_8 O 0.4280(4) 0.03934(14) 0.89647(13)
O18_11 O 0.4108(6) 0.8820(2) 0.0000
O19_11 O 0.2804(5) 0.9487(2) 0.0000
O22_8 O 0.3655(4) 0.92501(16) 0.05932(15)
O18_12 O 0.4108(6) 0.8820(2) 1.0000
O19_12 O 0.2804(5) 0.9487(2) 1.0000
O28_8 O 0.5720(4) 0.96066(14) 0.89647(13)
C1_5 C 0.7810(6) 0.6658(2) 0.7811(2)
C2_5 C 0.7500 0.6458(3) 0.7500
H1_5 H 0.7500 0.6183 0.7500
C3_5 C 0.8795(7) 0.5858(2) 0.8370(2)
H2_5 H 0.9106 0.5646 0.8318
C4_5 C 0.8109(6) 0.6249(2) 0.8816(2)
H3_5 H 0.7937 0.6296 0.9066
C5_5 C 0.8575(6) 0.5933(2) 0.8745(2)
C6_5 C 0.7902(6) 0.6494(2) 0.8518(2)
H4_5 H 0.7620 0.6717 0.8571
C7_5 C 0.8105(6) 0.6415(2) 0.8139(2)
C8_5 C 0.8856(6) 0.5677(2) 0.9062(2)
C9_5 C 0.8556(7) 0.6097(2) 0.8072(2)
H5_5 H 0.8704 0.6041 0.7819
O7_5 O 0.8258(5) 0.7274(2) 0.8096(2)
H6_5 H 0.7979 0.7365 0.8260
C10_5 C 0.7832(6) 0.7072(2) 0.7799(2)
C11_5 C 0.7500 0.7281(3) 0.7500
C12_5 C 0.7810(6) 0.8342(2) 0.7189(2)
C13_5 C 0.7500 0.8542(3) 0.7500
H7_5 H 0.7500 0.8817 0.7500
C14_5 C 0.8795(7) 0.9142(2) 0.6630(2)
H8_5 H 0.9106 0.9354 0.6682
C15_5 C 0.8109(6) 0.8751(2) 0.6184(2)
H9_5 H 0.7937 0.8704 0.5934
C16_5 C 0.8575(6) 0.9067(2) 0.6255(2)
C17_5 C 0.7902(6) 0.8506(2) 0.6482(2)
H10_5 H 0.7620 0.8283 0.6429
C18_5 C 0.8105(6) 0.8585(2) 0.6861(2)
C19_5 C 0.8856(6) 0.9323(2) 0.5938(2)
C20_5 C 0.8556(7) 0.8903(2) 0.6928(2)
H11_5 H 0.8704 0.8959 0.7181
O10_5 O 0.8258(5) 0.7726(2) 0.6904(2)
H12_5 H 0.7979 0.7635 0.6740
C21_5 C 0.7832(6) 0.7928(2) 0.7201(2)
C22_5 C 0.7500 0.7719(3) 0.7500
C23_5 C 0.7190(6) 0.6658(2) 0.7189(2)
C24_5 C 0.6205(7) 0.5858(2) 0.6630(2)
H13_5 H 0.5894 0.5646 0.6682
C25_5 C 0.6891(6) 0.6249(2) 0.6184(2)
H14_5 H 0.7063 0.6296 0.5934
C26_5 C 0.6425(6) 0.5933(2) 0.6255(2)
C27_5 C 0.7098(6) 0.6494(2) 0.6482(2)
H15_5 H 0.7380 0.6717 0.6429
C28_5 C 0.6895(6) 0.6415(2) 0.6861(2)
C29_5 C 0.6144(6) 0.5677(2) 0.5938(2)
C30_5 C 0.6444(7) 0.6097(2) 0.6928(2)
H16_5 H 0.6296 0.6041 0.7181
O13_5 O 0.6742(5) 0.7274(2) 0.6904(2)
H17_5 H 0.7021 0.7365 0.6740
C31_5 C 0.7168(6) 0.7072(2) 0.7201(2)
C32_5 C 0.7190(6) 0.8342(2) 0.7811(2)
C33_5 C 0.6205(7) 0.9142(2) 0.8370(2)
H18_5 H 0.5894 0.9354 0.8318
C34_5 C 0.6891(6) 0.8751(2) 0.8816(2)
H19_5 H 0.7063 0.8704 0.9066
C35_5 C 0.6425(6) 0.9067(2) 0.8745(2)
C36_5 C 0.7098(6) 0.8506(2) 0.8518(2)
H20_5 H 0.7380 0.8283 0.8571
C37_5 C 0.6895(6) 0.8585(2) 0.8139(2)
C38_5 C 0.6144(6) 0.9323(2) 0.9062(2)
C39_5 C 0.6444(7) 0.8903(2) 0.8072(2)
H21_5 H 0.6296 0.8959 0.7819
O16_5 O 0.6742(5) 0.7726(2) 0.8096(2)
H22_5 H 0.7021 0.7635 0.8260
C40_5 C 0.7168(6) 0.7928(2) 0.7799(2)
C1_6 C 0.2190(6) 0.3342(2) 0.7811(2)
C2_6 C 0.2500 0.3542(3) 0.7500
H1_6 H 0.2500 0.3817 0.7500
C3_6 C 0.1205(7) 0.4142(2) 0.8370(2)
H2_6 H 0.0894 0.4354 0.8318
C4_6 C 0.1891(6) 0.3751(2) 0.8816(2)
H3_6 H 0.2063 0.3704 0.9066
C5_6 C 0.1425(6) 0.4067(2) 0.8745(2)
C6_6 C 0.2098(6) 0.3506(2) 0.8518(2)
H4_6 H 0.2380 0.3283 0.8571
C7_6 C 0.1895(6) 0.3585(2) 0.8139(2)
C8_6 C 0.1144(6) 0.4323(2) 0.9062(2)
C9_6 C 0.1444(7) 0.3903(2) 0.8072(2)
H5_6 H 0.1296 0.3959 0.7819
O7_6 O 0.1742(5) 0.2726(2) 0.8096(2)
H6_6 H 0.2021 0.2635 0.8260
C10_6 C 0.2168(6) 0.2928(2) 0.7799(2)
C11_6 C 0.2500 0.2719(3) 0.7500
C12_6 C 0.2190(6) 0.1658(2) 0.7189(2)
C13_6 C 0.2500 0.1458(3) 0.7500
H7_6 H 0.2500 0.1183 0.7500
C14_6 C 0.1205(7) 0.0858(2) 0.6630(2)
H8_6 H 0.0894 0.0646 0.6682
C15_6 C 0.1891(6) 0.1249(2) 0.6184(2)
H9_6 H 0.2063 0.1296 0.5934
C16_6 C 0.1425(6) 0.0933(2) 0.6255(2)
C17_6 C 0.2098(6) 0.1494(2) 0.6482(2)
H10_6 H 0.2380 0.1717 0.6429
C18_6 C 0.1895(6) 0.1415(2) 0.6861(2)
C19_6 C 0.1144(6) 0.0677(2) 0.5938(2)
C20_6 C 0.1444(7) 0.1097(2) 0.6928(2)
H11_6 H 0.1296 0.1041 0.7181
O10_6 O 0.1742(5) 0.2274(2) 0.6904(2)
H12_6 H 0.2021 0.2365 0.6740
C21_6 C 0.2168(6) 0.2072(2) 0.7201(2)
C22_6 C 0.2500 0.2281(3) 0.7500
C23_6 C 0.2810(6) 0.3342(2) 0.7189(2)
C24_6 C 0.3795(7) 0.4142(2) 0.6630(2)
H13_6 H 0.4106 0.4354 0.6682
C25_6 C 0.3109(6) 0.3751(2) 0.6184(2)
H14_6 H 0.2937 0.3704 0.5934
C26_6 C 0.3575(6) 0.4067(2) 0.6255(2)
C27_6 C 0.2902(6) 0.3506(2) 0.6482(2)
H15_6 H 0.2620 0.3283 0.6429
C28_6 C 0.3105(6) 0.3585(2) 0.6861(2)
C29_6 C 0.3856(6) 0.4323(2) 0.5938(2)
C30_6 C 0.3556(7) 0.3903(2) 0.6928(2)
H16_6 H 0.3704 0.3959 0.7181
O13_6 O 0.3258(5) 0.2726(2) 0.6904(2)
H17_6 H 0.2979 0.2635 0.6740
C31_6 C 0.2832(6) 0.2928(2) 0.7201(2)
C32_6 C 0.2810(6) 0.1658(2) 0.7811(2)
C33_6 C 0.3795(7) 0.0858(2) 0.8370(2)
H18_6 H 0.4106 0.0646 0.8318
C34_6 C 0.3109(6) 0.1249(2) 0.8816(2)
H19_6 H 0.2937 0.1296 0.9066
C35_6 C 0.3575(6) 0.0933(2) 0.8745(2)
C36_6 C 0.2902(6) 0.1494(2) 0.8518(2)
H20_6 H 0.2620 0.1717 0.8571
C37_6 C 0.3105(6) 0.1415(2) 0.8139(2)
C38_6 C 0.3856(6) 0.0677(2) 0.9062(2)
C39_6 C 0.3556(7) 0.1097(2) 0.8072(2)
H21_6 H 0.3704 0.1041 0.7819
O16_6 O 0.3258(5) 0.2274(2) 0.8096(2)
H22_6 H 0.2979 0.2365 0.8260
C40_6 C 0.2832(6) 0.2072(2) 0.7799(2)
C1_7 C 0.7810(6) 0.3342(2) 0.2189(2)
C2_7 C 0.7500 0.3542(3) 0.2500
H1_7 H 0.7500 0.3817 0.2500
C3_7 C 0.8795(7) 0.4142(2) 0.1630(2)
H2_7 H 0.9106 0.4354 0.1682
C4_7 C 0.8109(6) 0.3751(2) 0.1184(2)
H3_7 H 0.7937 0.3704 0.0934
C5_7 C 0.8575(6) 0.4067(2) 0.1255(2)
C6_7 C 0.7902(6) 0.3506(2) 0.1482(2)
H4_7 H 0.7620 0.3283 0.1429
C7_7 C 0.8105(6) 0.3585(2) 0.1861(2)
C8_7 C 0.8856(6) 0.4323(2) 0.0938(2)
C9_7 C 0.8556(7) 0.3903(2) 0.1928(2)
H5_7 H 0.8704 0.3959 0.2181
O7_7 O 0.8258(5) 0.2726(2) 0.1904(2)
H6_7 H 0.7979 0.2635 0.1740
C10_7 C 0.7832(6) 0.2928(2) 0.2201(2)
C11_7 C 0.7500 0.2719(3) 0.2500
C12_7 C 0.7810(6) 0.1658(2) 0.2811(2)
C13_7 C 0.7500 0.1458(3) 0.2500
H7_7 H 0.7500 0.1183 0.2500
C14_7 C 0.8795(7) 0.0858(2) 0.3370(2)
H8_7 H 0.9106 0.0646 0.3318
C15_7 C 0.8109(6) 0.1249(2) 0.3816(2)
H9_7 H 0.7937 0.1296 0.4066
C16_7 C 0.8575(6) 0.0933(2) 0.3745(2)
C17_7 C 0.7902(6) 0.1494(2) 0.3518(2)
H10_7 H 0.7620 0.1717 0.3571
C18_7 C 0.8105(6) 0.1415(2) 0.3139(2)
C19_7 C 0.8856(6) 0.0677(2) 0.4062(2)
C20_7 C 0.8556(7) 0.1097(2) 0.3072(2)
H11_7 H 0.8704 0.1041 0.2819
O10_7 O 0.8258(5) 0.2274(2) 0.3096(2)
H12_7 H 0.7979 0.2365 0.3260
C21_7 C 0.7832(6) 0.2072(2) 0.2799(2)
C22_7 C 0.7500 0.2281(3) 0.2500
C23_7 C 0.7190(6) 0.3342(2) 0.2811(2)
C24_7 C 0.6205(7) 0.4142(2) 0.3370(2)
H13_7 H 0.5894 0.4354 0.3318
C25_7 C 0.6891(6) 0.3751(2) 0.3816(2)
H14_7 H 0.7063 0.3704 0.4066
C26_7 C 0.6425(6) 0.4067(2) 0.3745(2)
C27_7 C 0.7098(6) 0.3506(2) 0.3518(2)
H15_7 H 0.7380 0.3283 0.3571
C28_7 C 0.6895(6) 0.3585(2) 0.3139(2)
C29_7 C 0.6144(6) 0.4323(2) 0.4062(2)
C30_7 C 0.6444(7) 0.3903(2) 0.3072(2)
H16_7 H 0.6296 0.3959 0.2819
O13_7 O 0.6742(5) 0.2726(2) 0.3096(2)
H17_7 H 0.7021 0.2635 0.3260
C31_7 C 0.7168(6) 0.2928(2) 0.2799(2)
C32_7 C 0.7190(6) 0.1658(2) 0.2189(2)
C33_7 C 0.6205(7) 0.0858(2) 0.1630(2)
H18_7 H 0.5894 0.0646 0.1682
C34_7 C 0.6891(6) 0.1249(2) 0.1184(2)
H19_7 H 0.7063 0.1296 0.0934
C35_7 C 0.6425(6) 0.0933(2) 0.1255(2)
C36_7 C 0.7098(6) 0.1494(2) 0.1482(2)
H20_7 H 0.7380 0.1717 0.1429
C37_7 C 0.6895(6) 0.1415(2) 0.1861(2)
C38_7 C 0.6144(6) 0.0677(2) 0.0938(2)
C39_7 C 0.6444(7) 0.1097(2) 0.1928(2)
H21_7 H 0.6296 0.1041 0.2181
O16_7 O 0.6742(5) 0.2274(2) 0.1904(2)
H22_7 H 0.7021 0.2365 0.1740
C40_7 C 0.7168(6) 0.2072(2) 0.2201(2)
C1_8 C 0.2190(6) 0.6658(2) 0.2189(2)
C2_8 C 0.2500 0.6458(3) 0.2500
H1_8 H 0.2500 0.6183 0.2500
C3_8 C 0.1205(7) 0.5858(2) 0.1630(2)
H2_8 H 0.0894 0.5646 0.1682
C4_8 C 0.1891(6) 0.6249(2) 0.1184(2)
H3_8 H 0.2063 0.6296 0.0934
C5_8 C 0.1425(6) 0.5933(2) 0.1255(2)
C6_8 C 0.2098(6) 0.6494(2) 0.1482(2)
H4_8 H 0.2380 0.6717 0.1429
C7_8 C 0.1895(6) 0.6415(2) 0.1861(2)
C8_8 C 0.1144(6) 0.5677(2) 0.0938(2)
C9_8 C 0.1444(7) 0.6097(2) 0.1928(2)
H5_8 H 0.1296 0.6041 0.2181
O7_8 O 0.1742(5) 0.7274(2) 0.1904(2)
H6_8 H 0.2021 0.7365 0.1740
C10_8 C 0.2168(6) 0.7072(2) 0.2201(2)
C11_8 C 0.2500 0.7281(3) 0.2500
C12_8 C 0.2190(6) 0.8342(2) 0.2811(2)
C13_8 C 0.2500 0.8542(3) 0.2500
H7_8 H 0.2500 0.8817 0.2500
C14_8 C 0.1205(7) 0.9142(2) 0.3370(2)
H8_8 H 0.0894 0.9354 0.3318
C15_8 C 0.1891(6) 0.8751(2) 0.3816(2)
H9_8 H 0.2063 0.8704 0.4066
C16_8 C 0.1425(6) 0.9067(2) 0.3745(2)
C17_8 C 0.2098(6) 0.8506(2) 0.3518(2)
H10_8 H 0.2380 0.8283 0.3571
C18_8 C 0.1895(6) 0.8585(2) 0.3139(2)
C19_8 C 0.1144(6) 0.9323(2) 0.4062(2)
C20_8 C 0.1444(7) 0.8903(2) 0.3072(2)
H11_8 H 0.1296 0.8959 0.2819
O10_8 O 0.1742(5) 0.7726(2) 0.3096(2)
H12_8 H 0.2021 0.7635 0.3260
C21_8 C 0.2168(6) 0.7928(2) 0.2799(2)
C22_8 C 0.2500 0.7719(3) 0.2500
C23_8 C 0.2810(6) 0.6658(2) 0.2811(2)
C24_8 C 0.3795(7) 0.5858(2) 0.3370(2)
H13_8 H 0.4106 0.5646 0.3318
C25_8 C 0.3109(6) 0.6249(2) 0.3816(2)
H14_8 H 0.2937 0.6296 0.4066
C26_8 C 0.3575(6) 0.5933(2) 0.3745(2)
C27_8 C 0.2902(6) 0.6494(2) 0.3518(2)
H15_8 H 0.2620 0.6717 0.3571
C28_8 C 0.3105(6) 0.6415(2) 0.3139(2)
C29_8 C 0.3856(6) 0.5677(2) 0.4062(2)
C30_8 C 0.3556(7) 0.6097(2) 0.3072(2)
H16_8 H 0.3704 0.6041 0.2819
O13_8 O 0.3258(5) 0.7274(2) 0.3096(2)
H17_8 H 0.2979 0.7365 0.3260
C31_8 C 0.2832(6) 0.7072(2) 0.2799(2)
C32_8 C 0.2810(6) 0.8342(2) 0.2189(2)
C33_8 C 0.3795(7) 0.9142(2) 0.1630(2)
H18_8 H 0.4106 0.9354 0.1682
C34_8 C 0.3109(6) 0.8751(2) 0.1184(2)
H19_8 H 0.2937 0.8704 0.0934
C35_8 C 0.3575(6) 0.9067(2) 0.1255(2)
C36_8 C 0.2902(6) 0.8506(2) 0.1482(2)
H20_8 H 0.2620 0.8283 0.1429
C37_8 C 0.3105(6) 0.8585(2) 0.1861(2)
C38_8 C 0.3856(6) 0.9323(2) 0.0938(2)
C39_8 C 0.3556(7) 0.8903(2) 0.1928(2)
H21_8 H 0.3704 0.8959 0.2181
O16_8 O 0.3258(5) 0.7726(2) 0.1904(2)
H22_8 H 0.2979 0.7635 0.1740
C40_8 C 0.2832(6) 0.7928(2) 0.2201(2)
loop_
_geom_bond_atom_site_label_1
_geom_bond_atom_site_label_2
_geom_bond_site_symmetry_1
_geom_bond_site_symmetry_2
Zr1 O2 1_555 1_555
Zr2 O1 1_555 1_555
O1 C8 1_555 1_555
C1 C2 1_555 1_555
C2 H1 1_555 1_555
C3 H2 1_555 1_555
C4 H3 1_555 1_555
C5 C3 1_555 1_555
C6 C4 1_555 1_555
H4 C6 1_555 1_555
C7 C1 1_555 1_555
C8 C5 1_555 1_555
C9 C3 1_555 1_555
H5 C9 1_555 1_555
O2 Zr2 1_555 1_555
O3 Zr2 1_555 1_555
O4 Zr2 1_555 1_555
O5 Zr1 1_555 1_555
O6 Zr1 1_555 1_555
O7 H6 1_555 1_555
C10 C1 1_555 1_555
C11 C10 1_555 1_555
O8 C19 1_555 1_555
C12 C13 1_555 1_555
C13 H7 1_555 1_555
C14 H8 1_555 1_555
C15 H9 1_555 1_555
C16 C14 1_555 1_555
C17 C15 1_555 1_555
H10 C17 1_555 1_555
C18 C12 1_555 1_555
C19 C16 1_555 1_555
C20 C14 1_555 1_555
H11 C20 1_555 1_555
O9 C19 1_555 1_555
O10 H12 1_555 1_555
C21 C12 1_555 1_555
C22 C11 1_555 1_555
O11 C29 1_555 1_555
C23 C2 1_555 1_555
C24 H13 1_555 1_555
C25 H14 1_555 1_555
C26 C24 1_555 1_555
C27 C25 1_555 1_555
H15 C27 1_555 1_555
C28 C23 1_555 1_555
C29 C26 1_555 1_555
C30 C24 1_555 1_555
H16 C30 1_555 1_555
O12 C29 1_555 1_555
O13 H17 1_555 1_555
C31 C11 1_555 1_555
O14 C38 1_555 1_555
C32 C13 1_555 1_555
C33 H18 1_555 1_555
C34 H19 1_555 1_555
C35 C33 1_555 1_555
C36 C34 1_555 1_555
H20 C36 1_555 1_555
C37 C32 1_555 1_555
C38 C35 1_555 1_555
C39 C33 1_555 1_555
H21 C39 1_555 1_555
O15 C38 1_555 1_555
O16 H22 1_555 1_555
C40 C22 1_555 1_555
O20 Zr1 1_555 1_555
Zr4 O9 1_555 1_555
Zr5 O12 1_555 1_555
Zr6 O15 1_555 1_555
Zr7 O2 1_555 1_555
Zr9 O8 1_555 1_555
Zr10 O11 1_555 1_555
Zr11 O14 1_555 1_555
O28 Zr1 1_555 1_555
Zr2 O6 1_555 1_555
C4 C5 1_555 1_555
C6 C7 1_555 1_555
C7 C9 1_555 1_555
C8 O5 1_555 1_555
O7 C10 1_555 1_555
C15 C16 1_555 1_555
C17 C18 1_555 1_555
C18 C20 1_555 1_555
O10 C21 1_555 1_555
C21 C22 1_555 1_555
C23 C31 1_555 1_555
C25 C26 1_555 1_555
C27 C28 1_555 1_555
C28 C30 1_555 1_555
O13 C31 1_555 1_555
C32 C40 1_555 1_555
C34 C35 1_555 1_555
C36 C37 1_555 1_555
C37 C39 1_555 1_555
O16 C40 1_555 1_555
O20 Zr7 1_555 1_555
O3_2 Zr2_2 1_555 1_555
O4_2 Zr2_2 1_555 1_555
O23 Zr2_2 1_555 1_555
O24 Zr2_2 1_555 1_555
O30 Zr2_2 1_555 1_555
Zr7_2 O24 1_555 1_555
Zr7_2 O29 1_555 1_555
O6_2 Zr1_2 1_555 1_555
Zr3 O17 1_555 1_555
O17 Zr1_2 1_555 1_555
O18 Zr3 1_555 1_555
O19 Zr3 1_555 1_555
O20_2 Zr1_2 1_555 1_555
Zr8 O6_2 1_555 1_555
O21 Zr3 1_555 1_555
O26 Zr1_2 1_555 1_555
O27 Zr1_2 1_555 1_555
Zr3 O20_2 1_555 1_555
O17 Zr8 1_555 1_555
O18_2 Zr3_2 1_555 1_555
O19_2 Zr3_2 1_555 1_555
O22 Zr3_2 1_555 1_555
O25 Zr3_2 1_555 1_555
O29_2 Zr3_2 1_555 1_555
Zr8_2 O25 1_555 1_555
Zr8_2 O30_2 1_555 1_555
O21 C8_2 1_555 1_555
C1_2 C2_2 1_555 1_555
C2_2 H1_2 1_555 1_555
C3_2 H2_2 1_555 1_555
C4_2 H3_2 1_555 1_555
C5_2 C3_2 1_555 1_555
C6_2 C4_2 1_555 1_555
H4_2 C6_2 1_555 1_555
C7_2 C1_2 1_555 1_555
C8_2 C5_2 1_555 1_555
C9_2 C3_2 1_555 1_555
H5_2 C9_2 1_555 1_555
O7_2 H6_2 1_555 1_555
C10_2 C1_2 1_555 1_555
C11_2 C10_2 1_555 1_555
O8_2 C19_2 1_555 1_555
C12_2 C13_2 1_555 1_555
C13_2 H7_2 1_555 1_555
C14_2 H8_2 1_555 1_555
C15_2 H9_2 1_555 1_555
C16_2 C14_2 1_555 1_555
C17_2 C15_2 1_555 1_555
H10_2 C17_2 1_555 1_555
C18_2 C12_2 1_555 1_555
C19_2 C16_2 1_555 1_555
C20_2 C14_2 1_555 1_555
H11_2 C20_2 1_555 1_555
O9_2 C19_2 1_555 1_555
O10_2 H12_2 1_555 1_555
C21_2 C12_2 1_555 1_555
C22_2 C11_2 1_555 1_555
O11_2 C29_2 1_555 1_555
C23_2 C2_2 1_555 1_555
C24_2 H13_2 1_555 1_555
C25_2 H14_2 1_555 1_555
C26_2 C24_2 1_555 1_555
C27_2 C25_2 1_555 1_555
H15_2 C27_2 1_555 1_555
C28_2 C23_2 1_555 1_555
C29_2 C26_2 1_555 1_555
C30_2 C24_2 1_555 1_555
H16_2 C30_2 1_555 1_555
O12_2 C29_2 1_555 1_555
O13_2 H17_2 1_555 1_555
C31_2 C11_2 1_555 1_555
O14_2 C38_2 1_555 1_555
C32_2 C13_2 1_555 1_555
C33_2 H18_2 1_555 1_555
C34_2 H19_2 1_555 1_555
C35_2 C33_2 1_555 1_555
C36_2 C34_2 1_555 1_555
H20_2 C36_2 1_555 1_555
C37_2 C32_2 1_555 1_555
C38_2 C35_2 1_555 1_555
C39_2 C33_2 1_555 1_555
H21_2 C39_2 1_555 1_555
O15_2 C38_2 1_555 1_555
O16_2 H22_2 1_555 1_555
C40_2 C22_2 1_555 1_555
Zr4_4 O9_2 1_555 1_555
Zr5 O12_2 1_555 1_555
Zr6_2 O15_2 1_555 1_555
Zr9_2 O8_2 1_555 1_555
Zr10_2 O11_2 1_555 1_555
Zr11_3 O14_2 1_555 1_555
C4_2 C5_2 1_555 1_555
C6_2 C7_2 1_555 1_555
C7_2 C9_2 1_555 1_555
C8_2 O26 1_555 1_555
O7_2 C10_2 1_555 1_555
C15_2 C16_2 1_555 1_555
C17_2 C18_2 1_555 1_555
C18_2 C20_2 1_555 1_555
O10_2 C21_2 1_555 1_555
C21_2 C22_2 1_555 1_555
C23_2 C31_2 1_555 1_555
C25_2 C26_2 1_555 1_555
C27_2 C28_2 1_555 1_555
C28_2 C30_2 1_555 1_555
O13_2 C31_2 1_555 1_555
C32_2 C40_2 1_555 1_555
C34_2 C35_2 1_555 1_555
C36_2 C37_2 1_555 1_555
C37_2 C39_2 1_555 1_555
O16_2 C40_2 1_555 1_555
O3_3 Zr7 1_555 1_555
O4_3 Zr7 1_555 1_555
O23_2 Zr7 1_555 1_555
Zr1_3 O24 1_555 1_555
Zr7_2 O1_2 1_555 1_555
O1_2 C8_3 1_555 1_555
C1_3 C2_3 1_555 1_555
C2_3 H1_3 1_555 1_555
C3_3 H2_3 1_555 1_555
C4_3 H3_3 1_555 1_555
C5_3 C3_3 1_555 1_555
C6_3 C4_3 1_555 1_555
H4_3 C6_3 1_555 1_555
C7_3 C1_3 1_555 1_555
C8_3 C5_3 1_555 1_555
C9_3 C3_3 1_555 1_555
H5_3 C9_3 1_555 1_555
O3_4 Zr7_2 1_555 1_555
O4_4 Zr7_2 1_555 1_555
O5_2 Zr1_3 1_555 1_555
O29 Zr1_3 1_555 1_555
O7_3 H6_3 1_555 1_555
C10_3 C1_3 1_555 1_555
C11_3 C10_3 1_555 1_555
O8_3 C19_3 1_555 1_555
C12_3 C13_3 1_555 1_555
C13_3 H7_3 1_555 1_555
C14_3 H8_3 1_555 1_555
C15_3 H9_3 1_555 1_555
C16_3 C14_3 1_555 1_555
C17_3 C15_3 1_555 1_555
H10_3 C17_3 1_555 1_555
C18_3 C12_3 1_555 1_555
C19_3 C16_3 1_555 1_555
C20_3 C14_3 1_555 1_555
H11_3 C20_3 1_555 1_555
O9_3 C19_3 1_555 1_555
O10_3 H12_3 1_555 1_555
C21_3 C12_3 1_555 1_555
C22_3 C11_3 1_555 1_555
O11_3 C29_3 1_555 1_555
C23_3 C2_3 1_555 1_555
C24_3 H13_3 1_555 1_555
C25_3 H14_3 1_555 1_555
C26_3 C24_3 1_555 1_555
C27_3 C25_3 1_555 1_555
H15_3 C27_3 1_555 1_555
C28_3 C23_3 1_555 1_555
C29_3 C26_3 1_555 1_555
C30_3 C24_3 1_555 1_555
H16_3 C30_3 1_555 1_555
O12_3 C29_3 1_555 1_555
O13_3 H17_3 1_555 1_555
C31_3 C11_3 1_555 1_555
O14_3 C38_3 1_555 1_555
C32_3 C13_3 1_555 1_555
C33_3 H18_3 1_555 1_555
C34_3 H19_3 1_555 1_555
C35_3 C33_3 1_555 1_555
C36_3 C34_3 1_555 1_555
H20_3 C36_3 1_555 1_555
C37_3 C32_3 1_555 1_555
C38_3 C35_3 1_555 1_555
C39_3 C33_3 1_555 1_555
H21_3 C39_3 1_555 1_555
O15_3 C38_3 1_555 1_555
O16_3 H22_3 1_555 1_555
C40_3 C22_3 1_555 1_555
O30 Zr1_3 1_555 1_555
Zr4_6 O9_3 1_555 1_555
Zr5_2 O12_3 1_555 1_555
Zr6_4 O15_3 1_555 1_555
Zr9_3 O8_3 1_555 1_555
Zr10_3 O11_3 1_555 1_555
Zr11_6 O14_3 1_555 1_555
O28_2 Zr1_3 1_555 1_555
C4_3 C5_3 1_555 1_555
C6_3 C7_3 1_555 1_555
C7_3 C9_3 1_555 1_555
C8_3 O5_2 1_555 1_555
O7_3 C10_3 1_555 1_555
C15_3 C16_3 1_555 1_555
C17_3 C18_3 1_555 1_555
C18_3 C20_3 1_555 1_555
O10_3 C21_3 1_555 1_555
C21_3 C22_3 1_555 1_555
C23_3 C31_3 1_555 1_555
C25_3 C26_3 1_555 1_555
C27_3 C28_3 1_555 1_555
C28_3 C30_3 1_555 1_555
O13_3 C31_3 1_555 1_555
C32_3 C40_3 1_555 1_555
C34_3 C35_3 1_555 1_555
C36_3 C37_3 1_555 1_555
C37_3 C39_3 1_555 1_555
O16_3 C40_3 1_555 1_555
O18_3 Zr8 1_555 1_555
O19_3 Zr8 1_555 1_555
O22_2 Zr8 1_555 1_555
O29_2 Zr1_4 1_555 1_555
O25 Zr1_4 1_555 1_555
O18_4 Zr8_2 1_555 1_555
O19_4 Zr8_2 1_555 1_555
O30_2 Zr1_4 1_555 1_555
O21_2 Zr8_2 1_555 1_555
O26_2 Zr1_4 1_555 1_555
O27_2 Zr1_4 1_555 1_555
O21_2 C8_4 1_555 1_555
C1_4 C2_4 1_555 1_555
C2_4 H1_4 1_555 1_555
C3_4 H2_4 1_555 1_555
C4_4 H3_4 1_555 1_555
C5_4 C3_4 1_555 1_555
C6_4 C4_4 1_555 1_555
H4_4 C6_4 1_555 1_555
C7_4 C1_4 1_555 1_555
C8_4 C5_4 1_555 1_555
C9_4 C3_4 1_555 1_555
H5_4 C9_4 1_555 1_555
O7_4 H6_4 1_555 1_555
C10_4 C1_4 1_555 1_555
C11_4 C10_4 1_555 1_555
O8_4 C19_4 1_555 1_555
C12_4 C13_4 1_555 1_555
C13_4 H7_4 1_555 1_555
C14_4 H8_4 1_555 1_555
C15_4 H9_4 1_555 1_555
C16_4 C14_4 1_555 1_555
C17_4 C15_4 1_555 1_555
H10_4 C17_4 1_555 1_555
C18_4 C12_4 1_555 1_555
C19_4 C16_4 1_555 1_555
C20_4 C14_4 1_555 1_555
H11_4 C20_4 1_555 1_555
O9_4 C19_4 1_555 1_555
O10_4 H12_4 1_555 1_555
C21_4 C12_4 1_555 1_555
C22_4 C11_4 1_555 1_555
O11_4 C29_4 1_555 1_555
C23_4 C2_4 1_555 1_555
C24_4 H13_4 1_555 1_555
C25_4 H14_4 1_555 1_555
C26_4 C24_4 1_555 1_555
C27_4 C25_4 1_555 1_555
H15_4 C27_4 1_555 1_555
C28_4 C23_4 1_555 1_555
C29_4 C26_4 1_555 1_555
C30_4 C24_4 1_555 1_555
H16_4 C30_4 1_555 1_555
O12_4 C29_4 1_555 1_555
O13_4 H17_4 1_555 1_555
C31_4 C11_4 1_555 1_555
O14_4 C38_4 1_555 1_555
C32_4 C13_4 1_555 1_555
C33_4 H18_4 1_555 1_555
C34_4 H19_4 1_555 1_555
C35_4 C33_4 1_555 1_555
C36_4 C34_4 1_555 1_555
H20_4 C36_4 1_555 1_555
C37_4 C32_4 1_555 1_555
C38_4 C35_4 1_555 1_555
C39_4 C33_4 1_555 1_555
H21_4 C39_4 1_555 1_555
O15_4 C38_4 1_555 1_555
O16_4 H22_4 1_555 1_555
C40_4 C22_4 1_555 1_555
Zr4_7 O9_4 1_555 1_555
Zr5_2 O12_4 1_555 1_555
Zr6_3 O15_4 1_555 1_555
Zr9_4 O8_4 1_555 1_555
Zr10_4 O11_4 1_555 1_555
Zr11_8 O14_4 1_555 1_555
C4_4 C5_4 1_555 1_555
C6_4 C7_4 1_555 1_555
C7_4 C9_4 1_555 1_555
C8_4 O26_2 1_555 1_555
O7_4 C10_4 1_555 1_555
C15_4 C16_4 1_555 1_555
C17_4 C18_4 1_555 1_555
C18_4 C20_4 1_555 1_555
O10_4 C21_4 1_555 1_555
C21_4 C22_4 1_555 1_555
C23_4 C31_4 1_555 1_555
C25_4 C26_4 1_555 1_555
C27_4 C28_4 1_555 1_555
C28_4 C30_4 1_555 1_555
O13_4 C31_4 1_555 1_555
C32_4 C40_4 1_555 1_555
C34_4 C35_4 1_555 1_555
C36_4 C37_4 1_555 1_555
C37_4 C39_4 1_555 1_555
O16_4 C40_4 1_555 1_555
Zr4_5 O2_2 1_555 1_555
O20_3 Zr4_5 1_555 1_555
Zr9 O2_2 1_555 1_555
O28_3 Zr4_5 1_555 1_555
O20_3 Zr9 1_555 1_555
Zr9 O24_2 1_555 1_555
Zr9 O29_3 1_555 1_555
Zr4_6 O2_3 1_555 1_555
O2_3 Zr9_3 1_555 1_555
O3_5 Zr9_3 1_555 1_555
O4_5 Zr9_3 1_555 1_555
O6_3 Zr4_6 1_555 1_555
O23_3 Zr9_3 1_555 1_555
O24_3 Zr9_3 1_555 1_555
O30_3 Zr9_3 1_555 1_555
Zr9_3 O6_3 1_555 1_555
Zr9_4 O17_2 1_555 1_555
O17_2 Zr4_7 1_555 1_555
O18_5 Zr9_4 1_555 1_555
O19_5 Zr9_4 1_555 1_555
O20_4 Zr4_7 1_555 1_555
O22_3 Zr9_4 1_555 1_555
O25_2 Zr9_4 1_555 1_555
O29_4 Zr9_4 1_555 1_555
Zr9_4 O20_4 1_555 1_555
O6_4 Zr4_8 1_555 1_555
O17_3 Zr4_8 1_555 1_555
Zr9_2 O6_4 1_555 1_555
O27_3 Zr4_8 1_555 1_555
O17_3 Zr9_2 1_555 1_555
Zr9_2 O25_3 1_555 1_555
Zr9_2 O30_4 1_555 1_555
Zr4 O24_2 1_555 1_555
O3_6 Zr9 1_555 1_555
O4_6 Zr9 1_555 1_555
O29_3 Zr4 1_555 1_555
O23_4 Zr9 1_555 1_555
Zr4_2 O24_3 1_555 1_555
O30_3 Zr4_2 1_555 1_555
O28_4 Zr4_2 1_555 1_555
O29_4 Zr4_3 1_555 1_555
O25_2 Zr4_3 1_555 1_555
O27_4 Zr4_3 1_555 1_555
O25_3 Zr4_4 1_555 1_555
O18_6 Zr9_2 1_555 1_555
O19_6 Zr9_2 1_555 1_555
O30_4 Zr4_4 1_555 1_555
O22_4 Zr9_2 1_555 1_555
Zr5_2 O2_4 1_555 1_555
O2_4 Zr10_4 1_555 1_555
O3_7 Zr10_4 1_555 1_555
O4_7 Zr10_4 1_555 1_555
O6_5 Zr5_2 1_555 1_555
Zr10_3 O17_4 1_555 1_555
O17_4 Zr5_2 1_555 1_555
O18_7 Zr10_3 1_555 1_555
O19_7 Zr10_3 1_555 1_555
O20_5 Zr5_2 1_555 1_555
Zr10_2 O2_4 1_555 1_555
Zr10 O6_5 1_555 1_555
O22_5 Zr10_3 1_555 1_555
O23_5 Zr10_4 1_555 1_555
O24_4 Zr10_4 1_555 1_555
O25_4 Zr10_3 1_555 1_555
O27_5 Zr5_2 1_555 1_555
O28_5 Zr5_2 1_555 1_555
O29_5 Zr10_3 1_555 1_555
O30_5 Zr10_4 1_555 1_555
Zr10_4 O6_5 1_555 1_555
Zr10_3 O20_5 1_555 1_555
O17_4 Zr10 1_555 1_555
O20_5 Zr10_2 1_555 1_555
Zr10_2 O24_4 1_555 1_555
Zr10_2 O29_5 1_555 1_555
Zr10 O25_4 1_555 1_555
Zr10 O30_5 1_555 1_555
Zr5 O24_4 1_555 1_555
O3_8 Zr10_2 1_555 1_555
O4_8 Zr10_2 1_555 1_555
O29_5 Zr5 1_555 1_555
O25_4 Zr5 1_555 1_555
O18_8 Zr10 1_555 1_555
O19_8 Zr10 1_555 1_555
O30_5 Zr5 1_555 1_555
O22_6 Zr10 1_555 1_555
O23_6 Zr10_2 1_555 1_555
O27_6 Zr5 1_555 1_555
O28_6 Zr5 1_555 1_555
Zr6 O2_5 1_555 1_555
Zr11 O17_5 1_555 1_555
O17_5 Zr6 1_555 1_555
O18_9 Zr11 1_555 1_555
O19_9 Zr11 1_555 1_555
O20_6 Zr6 1_555 1_555
Zr11_7 O2_5 1_555 1_555
O28_7 Zr6 1_555 1_555
Zr11 O20_6 1_555 1_555
O20_6 Zr11_7 1_555 1_555
O18_10 Zr11_2 1_555 1_555
O19_10 Zr11_2 1_555 1_555
O22_7 Zr11_2 1_555 1_555
O25_5 Zr11_2 1_555 1_555
O29_6 Zr11_2 1_555 1_555
Zr11_8 O24_5 1_555 1_555
Zr11_8 O29_6 1_555 1_555
Zr6_2 O2_6 1_555 1_555
O2_6 Zr11_3 1_555 1_555
O3_9 Zr11_3 1_555 1_555
O4_9 Zr11_3 1_555 1_555
O6_6 Zr6_2 1_555 1_555
O17_6 Zr6_2 1_555 1_555
Zr11_5 O6_6 1_555 1_555
O27_7 Zr6_2 1_555 1_555
Zr11_3 O6_6 1_555 1_555
O17_6 Zr11_5 1_555 1_555
O3_10 Zr11_4 1_555 1_555
O4_10 Zr11_4 1_555 1_555
O23_7 Zr11_4 1_555 1_555
O24_6 Zr11_4 1_555 1_555
O30_6 Zr11_4 1_555 1_555
Zr11_6 O25_6 1_555 1_555
Zr11_6 O30_6 1_555 1_555
O3_11 Zr11_7 1_555 1_555
O4_11 Zr11_7 1_555 1_555
O23_8 Zr11_7 1_555 1_555
Zr6_3 O24_5 1_555 1_555
O3_12 Zr11_8 1_555 1_555
O4_12 Zr11_8 1_555 1_555
O29_6 Zr6_3 1_555 1_555
O25_5 Zr6_3 1_555 1_555
O27_8 Zr6_3 1_555 1_555
O18_11 Zr11_5 1_555 1_555
O19_11 Zr11_5 1_555 1_555
O22_8 Zr11_5 1_555 1_555
Zr6_4 O24_6 1_555 1_555
O25_6 Zr6_4 1_555 1_555
O18_12 Zr11_6 1_555 1_555
O19_12 Zr11_6 1_555 1_555
O30_6 Zr6_4 1_555 1_555
O28_8 Zr6_4 1_555 1_555
O22 C8_5 1_555 1_555
C1_5 C2_5 1_555 1_555
C2_5 H1_5 1_555 1_555
C3_5 H2_5 1_555 1_555
C4_5 H3_5 1_555 1_555
C5_5 C3_5 1_555 1_555
C6_5 C4_5 1_555 1_555
H4_5 C6_5 1_555 1_555
C7_5 C1_5 1_555 1_555
C8_5 C5_5 1_555 1_555
C9_5 C3_5 1_555 1_555
H5_5 C9_5 1_555 1_555
O7_5 H6_5 1_555 1_555
C10_5 C1_5 1_555 1_555
C11_5 C10_5 1_555 1_555
O22_4 C19_5 1_555 1_555
C12_5 C13_5 1_555 1_555
C13_5 H7_5 1_555 1_555
C14_5 H8_5 1_555 1_555
C15_5 H9_5 1_555 1_555
C16_5 C14_5 1_555 1_555
C17_5 C15_5 1_555 1_555
H10_5 C17_5 1_555 1_555
C18_5 C12_5 1_555 1_555
C19_5 C16_5 1_555 1_555
C20_5 C14_5 1_555 1_555
H11_5 C20_5 1_555 1_555
O27_3 C19_5 1_555 1_555
O10_5 H12_5 1_555 1_555
C21_5 C12_5 1_555 1_555
C22_5 C11_5 1_555 1_555
O23_6 C29_5 1_555 1_555
C23_5 C2_5 1_555 1_555
C24_5 H13_5 1_555 1_555
C25_5 H14_5 1_555 1_555
C26_5 C24_5 1_555 1_555
C27_5 C25_5 1_555 1_555
H15_5 C27_5 1_555 1_555
C28_5 C23_5 1_555 1_555
C29_5 C26_5 1_555 1_555
C30_5 C24_5 1_555 1_555
H16_5 C30_5 1_555 1_555
O28_5 C29_5 1_555 1_555
O13_5 H17_5 1_555 1_555
C31_5 C11_5 1_555 1_555
O23_7 C38_5 1_555 1_555
C32_5 C13_5 1_555 1_555
C33_5 H18_5 1_555 1_555
C34_5 H19_5 1_555 1_555
C35_5 C33_5 1_555 1_555
C36_5 C34_5 1_555 1_555
H20_5 C36_5 1_555 1_555
C37_5 C32_5 1_555 1_555
C38_5 C35_5 1_555 1_555
C39_5 C33_5 1_555 1_555
H21_5 C39_5 1_555 1_555
O28_8 C38_5 1_555 1_555
O16_5 H22_5 1_555 1_555
C40_5 C22_5 1_555 1_555
C4_5 C5_5 1_555 1_555
C6_5 C7_5 1_555 1_555
C7_5 C9_5 1_555 1_555
C8_5 O27_2 1_555 1_555
O7_5 C10_5 1_555 1_555
C15_5 C16_5 1_555 1_555
C17_5 C18_5 1_555 1_555
C18_5 C20_5 1_555 1_555
O10_5 C21_5 1_555 1_555
C21_5 C22_5 1_555 1_555
C23_5 C31_5 1_555 1_555
C25_5 C26_5 1_555 1_555
C27_5 C28_5 1_555 1_555
C28_5 C30_5 1_555 1_555
O13_5 C31_5 1_555 1_555
C32_5 C40_5 1_555 1_555
C34_5 C35_5 1_555 1_555
C36_5 C37_5 1_555 1_555
C37_5 C39_5 1_555 1_555
O16_5 C40_5 1_555 1_555
O23 C8_6 1_555 1_555
C1_6 C2_6 1_555 1_555
C2_6 H1_6 1_555 1_555
C3_6 H2_6 1_555 1_555
C4_6 H3_6 1_555 1_555
C5_6 C3_6 1_555 1_555
C6_6 C4_6 1_555 1_555
H4_6 C6_6 1_555 1_555
C7_6 C1_6 1_555 1_555
C8_6 C5_6 1_555 1_555
C9_6 C3_6 1_555 1_555
H5_6 C9_6 1_555 1_555
O7_6 H6_6 1_555 1_555
C10_6 C1_6 1_555 1_555
C11_6 C10_6 1_555 1_555
O23_4 C19_6 1_555 1_555
C12_6 C13_6 1_555 1_555
C13_6 H7_6 1_555 1_555
C14_6 H8_6 1_555 1_555
C15_6 H9_6 1_555 1_555
C16_6 C14_6 1_555 1_555
C17_6 C15_6 1_555 1_555
H10_6 C17_6 1_555 1_555
C18_6 C12_6 1_555 1_555
C19_6 C16_6 1_555 1_555
C20_6 C14_6 1_555 1_555
H11_6 C20_6 1_555 1_555
O28_3 C19_6 1_555 1_555
O10_6 H12_6 1_555 1_555
C21_6 C12_6 1_555 1_555
C22_6 C11_6 1_555 1_555
O22_6 C29_6 1_555 1_555
C23_6 C2_6 1_555 1_555
C24_6 H13_6 1_555 1_555
C25_6 H14_6 1_555 1_555
C26_6 C24_6 1_555 1_555
C27_6 C25_6 1_555 1_555
H15_6 C27_6 1_555 1_555
C28_6 C23_6 1_555 1_555
C29_6 C26_6 1_555 1_555
C30_6 C24_6 1_555 1_555
H16_6 C30_6 1_555 1_555
O27_5 C29_6 1_555 1_555
O13_6 H17_6 1_555 1_555
C31_6 C11_6 1_555 1_555
O22_7 C38_6 1_555 1_555
C32_6 C13_6 1_555 1_555
C33_6 H18_6 1_555 1_555
C34_6 H19_6 1_555 1_555
C35_6 C33_6 1_555 1_555
C36_6 C34_6 1_555 1_555
H20_6 C36_6 1_555 1_555
C37_6 C32_6 1_555 1_555
C38_6 C35_6 1_555 1_555
C39_6 C33_6 1_555 1_555
H21_6 C39_6 1_555 1_555
O27_8 C38_6 1_555 1_555
O16_6 H22_6 1_555 1_555
C40_6 C22_6 1_555 1_555
C4_6 C5_6 1_555 1_555
C6_6 C7_6 1_555 1_555
C7_6 C9_6 1_555 1_555
C8_6 O28_2 1_555 1_555
O7_6 C10_6 1_555 1_555
C15_6 C16_6 1_555 1_555
C17_6 C18_6 1_555 1_555
C18_6 C20_6 1_555 1_555
O10_6 C21_6 1_555 1_555
C21_6 C22_6 1_555 1_555
C23_6 C31_6 1_555 1_555
C25_6 C26_6 1_555 1_555
C27_6 C28_6 1_555 1_555
C28_6 C30_6 1_555 1_555
O13_6 C31_6 1_555 1_555
C32_6 C40_6 1_555 1_555
C34_6 C35_6 1_555 1_555
C36_6 C37_6 1_555 1_555
C37_6 C39_6 1_555 1_555
O16_6 C40_6 1_555 1_555
O22_2 C8_7 1_555 1_555
C1_7 C2_7 1_555 1_555
C2_7 H1_7 1_555 1_555
C3_7 H2_7 1_555 1_555
C4_7 H3_7 1_555 1_555
C5_7 C3_7 1_555 1_555
C6_7 C4_7 1_555 1_555
H4_7 C6_7 1_555 1_555
C7_7 C1_7 1_555 1_555
C8_7 C5_7 1_555 1_555
C9_7 C3_7 1_555 1_555
H5_7 C9_7 1_555 1_555
O7_7 H6_7 1_555 1_555
C10_7 C1_7 1_555 1_555
C11_7 C10_7 1_555 1_555
O22_3 C19_7 1_555 1_555
C12_7 C13_7 1_555 1_555
C13_7 H7_7 1_555 1_555
C14_7 H8_7 1_555 1_555
C15_7 H9_7 1_555 1_555
C16_7 C14_7 1_555 1_555
C17_7 C15_7 1_555 1_555
H10_7 C17_7 1_555 1_555
C18_7 C12_7 1_555 1_555
C19_7 C16_7 1_555 1_555
C20_7 C14_7 1_555 1_555
H11_7 C20_7 1_555 1_555
O27_4 C19_7 1_555 1_555
O10_7 H12_7 1_555 1_555
C21_7 C12_7 1_555 1_555
C22_7 C11_7 1_555 1_555
O23_5 C29_7 1_555 1_555
C23_7 C2_7 1_555 1_555
C24_7 H13_7 1_555 1_555
C25_7 H14_7 1_555 1_555
C26_7 C24_7 1_555 1_555
C27_7 C25_7 1_555 1_555
H15_7 C27_7 1_555 1_555
C28_7 C23_7 1_555 1_555
C29_7 C26_7 1_555 1_555
C30_7 C24_7 1_555 1_555
H16_7 C30_7 1_555 1_555
O28_6 C29_7 1_555 1_555
O13_7 H17_7 1_555 1_555
C31_7 C11_7 1_555 1_555
O23_8 C38_7 1_555 1_555
C32_7 C13_7 1_555 1_555
C33_7 H18_7 1_555 1_555
C34_7 H19_7 1_555 1_555
C35_7 C33_7 1_555 1_555
C36_7 C34_7 1_555 1_555
H20_7 C36_7 1_555 1_555
C37_7 C32_7 1_555 1_555
C38_7 C35_7 1_555 1_555
C39_7 C33_7 1_555 1_555
H21_7 C39_7 1_555 1_555
O28_7 C38_7 1_555 1_555
O16_7 H22_7 1_555 1_555
C40_7 C22_7 1_555 1_555
C4_7 C5_7 1_555 1_555
C6_7 C7_7 1_555 1_555
C7_7 C9_7 1_555 1_555
C8_7 O27 1_555 1_555
O7_7 C10_7 1_555 1_555
C15_7 C16_7 1_555 1_555
C17_7 C18_7 1_555 1_555
C18_7 C20_7 1_555 1_555
O10_7 C21_7 1_555 1_555
C21_7 C22_7 1_555 1_555
C23_7 C31_7 1_555 1_555
C25_7 C26_7 1_555 1_555
C27_7 C28_7 1_555 1_555
C28_7 C30_7 1_555 1_555
O13_7 C31_7 1_555 1_555
C32_7 C40_7 1_555 1_555
C34_7 C35_7 1_555 1_555
C36_7 C37_7 1_555 1_555
C37_7 C39_7 1_555 1_555
O16_7 C40_7 1_555 1_555
O23_2 C8_8 1_555 1_555
C1_8 C2_8 1_555 1_555
C2_8 H1_8 1_555 1_555
C3_8 H2_8 1_555 1_555
C4_8 H3_8 1_555 1_555
C5_8 C3_8 1_555 1_555
C6_8 C4_8 1_555 1_555
H4_8 C6_8 1_555 1_555
C7_8 C1_8 1_555 1_555
C8_8 C5_8 1_555 1_555
C9_8 C3_8 1_555 1_555
H5_8 C9_8 1_555 1_555
O7_8 H6_8 1_555 1_555
C10_8 C1_8 1_555 1_555
C11_8 C10_8 1_555 1_555
O23_3 C19_8 1_555 1_555
C12_8 C13_8 1_555 1_555
C13_8 H7_8 1_555 1_555
C14_8 H8_8 1_555 1_555
C15_8 H9_8 1_555 1_555
C16_8 C14_8 1_555 1_555
C17_8 C15_8 1_555 1_555
H10_8 C17_8 1_555 1_555
C18_8 C12_8 1_555 1_555
C19_8 C16_8 1_555 1_555
C20_8 C14_8 1_555 1_555
H11_8 C20_8 1_555 1_555
O28_4 C19_8 1_555 1_555
O10_8 H12_8 1_555 1_555
C21_8 C12_8 1_555 1_555
C22_8 C11_8 1_555 1_555
O22_5 C29_8 1_555 1_555
C23_8 C2_8 1_555 1_555
C24_8 H13_8 1_555 1_555
C25_8 H14_8 1_555 1_555
C26_8 C24_8 1_555 1_555
C27_8 C25_8 1_555 1_555
H15_8 C27_8 1_555 1_555
C28_8 C23_8 1_555 1_555
C29_8 C26_8 1_555 1_555
C30_8 C24_8 1_555 1_555
H16_8 C30_8 1_555 1_555
O27_6 C29_8 1_555 1_555
O13_8 H17_8 1_555 1_555
C31_8 C11_8 1_555 1_555
O22_8 C38_8 1_555 1_555
C32_8 C13_8 1_555 1_555
C33_8 H18_8 1_555 1_555
C34_8 H19_8 1_555 1_555
C35_8 C33_8 1_555 1_555
C36_8 C34_8 1_555 1_555
H20_8 C36_8 1_555 1_555
C37_8 C32_8 1_555 1_555
C38_8 C35_8 1_555 1_555
C39_8 C33_8 1_555 1_555
H21_8 C39_8 1_555 1_555
O27_7 C38_8 1_555 1_555
O16_8 H22_8 1_555 1_555
C40_8 C22_8 1_555 1_555
C4_8 C5_8 1_555 1_555
C6_8 C7_8 1_555 1_555
C7_8 C9_8 1_555 1_555
C8_8 O28 1_555 1_555
O7_8 C10_8 1_555 1_555
C15_8 C16_8 1_555 1_555
C17_8 C18_8 1_555 1_555
C18_8 C20_8 1_555 1_555
O10_8 C21_8 1_555 1_555
C21_8 C22_8 1_555 1_555
C23_8 C31_8 1_555 1_555
C25_8 C26_8 1_555 1_555
C27_8 C28_8 1_555 1_555
C28_8 C30_8 1_555 1_555
O13_8 C31_8 1_555 1_555
C32_8 C40_8 1_555 1_555
C34_8 C35_8 1_555 1_555
C36_8 C37_8 1_555 1_555
C37_8 C39_8 1_555 1_555
O16_8 C40_8 1_555 1_555

#END
