
###############################################################################
#
# This file contains modified crystal structure data generated from the
# MOF subset of the Cambridge Structural Database (CSD) v543 
# hosted by the Cambridge Crystallographic Data Centre (CCDC).
#
# This work is licensed under the Creative Commons
# Attribution-NonCommercial-ShareAlike 4.0 International License.
# To view a copy of this license, visit
# http://creativecommons.org/licenses/by-nc-sa/4.0/
# or send a letter to
# Creative Commons, PO Box 1866, Mountain View, CA 94042, USA.
#
# CIF created using the CSD Python API on 29 September 2022
# The structure has been converted into the P1 space group
# The structure has a 3D framework
# The original CSD entry ZULNAX is in the orthorhombic crystal system
# The framework has been calculated to contain at least 10.0% void space
# The void calculation uses a probe of radius 1.32A, grid spacing 0.4
# The framework is charged, counterions have been retained in the structure
#
###############################################################################

data_ZULNAX
_chemical_formula_moiety         '(C320 H320 N480 Zn96 32+)n'
_symmetry_cell_setting           triclinic
_symmetry_space_group_name_H-M   'P 1'
_symmetry_Int_Tables_number      1
_space_group_name_Hall           'P 1'
loop_
_symmetry_equiv_pos_site_id
_symmetry_equiv_pos_as_xyz
1 x,y,z
_cell_length_a                   19.869(5)
_cell_length_b                   28.259(5)
_cell_length_c                   48.027(5)
_cell_angle_alpha                90
_cell_angle_beta                 90
_cell_angle_gamma                90
_cell_volume                     26966.1
loop_
_atom_site_label
_atom_site_type_symbol
_atom_site_fract_x
_atom_site_fract_y
_atom_site_fract_z
N2 N 0.6226(7) 0.0122(3) 0.25590(17)
N3 N 0.6244(6) 0.0051(3) 0.28340(16)
C9 C 0.8574(11) 0.0297(8) 0.0288(5)
H9 H 0.8162 0.0214 0.0210
N13 N 0.8922(11) 0.0042(7) 0.0467(5)
N14 N 0.9475(11) 0.0277(8) 0.0529(5)
C10 C 0.9469(11) 0.0678(8) 0.0388(5)
H10 H 0.9799 0.0911 0.0392
N15 N 0.8912(12) 0.0690(8) 0.0239(5)
Zn6 Zn 0.63151(10) 0.05896(5) 0.31028(3)
Zn8 Zn 0.87764(8) 0.12174(5) 0.99758(3)
C1 C 0.6249(6) 0.9584(3) 0.28792(16)
H1 H 0.6260 0.9437 0.3052
N1 N 0.6234(6) 0.9367(3) 0.26322(17)
C2 C 0.6220(6) 0.9699(3) 0.24345(17)
H2 H 0.6208 0.9646 0.2243
N4 N 0.7944(4) 0.8966(4) 0.2013(2)
N5 N 0.8006(5) 0.8495(4) 0.2034(2)
C3 C 0.7471(5) 0.8331(3) 0.2175(3)
H3 H 0.7386 0.8016 0.2219
N6 N 0.7079(5) 0.8702(4) 0.2240(2)
C4 C 0.7372(5) 0.9094(4) 0.2140(2)
H4 H 0.7207 0.9401 0.2156
N7 N 0.7949(5) 0.8972(4) 0.0514(2)
N8 N 0.8002(5) 0.8496(4) 0.0498(2)
C5 C 0.7467(5) 0.8333(3) 0.0355(2)
H5 H 0.7378 0.8017 0.0313
N9 N 0.7083(5) 0.8707(4) 0.0282(2)
C6 C 0.7381(5) 0.9102(3) 0.0380(3)
H6 H 0.7223 0.9410 0.0360
N10 N 0.8822(12) 0.9522(8) 0.1503(5)
C7 C 0.8505(14) 0.9336(9) 0.1277(6)
H7 H 0.8141 0.9129 0.1280
N11 N 0.8813(14) 0.9506(9) 0.1044(5)
C8 C 0.9322(12) 0.9796(8) 0.1127(5)
H8 H 0.9614 0.9960 0.1010
N12 N 0.9327(11) 0.9806(8) 0.1410(5)
Zn1 Zn 0.86915(10) 0.94025(5) 0.06422(3)
Zn2 Zn 0.86849(10) 0.94104(5) 0.18972(3)
Zn3 Zn 0.62236(8) 0.87174(5) 0.24758(3)
N16 N 0.8756(6) 0.9949(3) 0.21660(16)
N17 N 0.9494(5) 0.9005(4) 0.2034(2)
N18 N 0.9498(5) 0.9004(4) 0.0498(2)
N19 N 0.5417(5) 0.8707(4) 0.2218(2)
Zn4 Zn 0.88085(10) 0.80975(5) 0.06422(3)
Zn5 Zn 0.88151(10) 0.80896(5) 0.18972(3)
Zn7 Zn 0.62764(8) 0.87174(5) 0.00242(3)
N20 N 0.6088(12) 0.8190(8) 0.2739(5)
C1_2 C 0.6251(6) 0.2916(3) 0.28792(16)
H1_2 H 0.6240 0.3063 0.3052
N1_2 N 0.6266(6) 0.3133(3) 0.26322(17)
C2_2 C 0.6280(6) 0.2801(3) 0.24345(17)
H2_2 H 0.6292 0.2854 0.2243
N2_2 N 0.6274(7) 0.2378(3) 0.25590(17)
N3_2 N 0.6256(6) 0.2449(3) 0.28340(16)
N4_2 N 0.4556(4) 0.3534(4) 0.2013(2)
N5_2 N 0.4494(5) 0.4005(4) 0.2034(2)
C3_2 C 0.5029(5) 0.4169(3) 0.2175(3)
H3_2 H 0.5114 0.4484 0.2219
N6_2 N 0.5421(5) 0.3798(4) 0.2240(2)
C4_2 C 0.5128(5) 0.3406(4) 0.2140(2)
H4_2 H 0.5293 0.3099 0.2156
N7_2 N 0.4551(5) 0.3528(4) 0.0514(2)
N8_2 N 0.4498(5) 0.4004(4) 0.0498(2)
C5_2 C 0.5033(5) 0.4167(3) 0.0355(2)
H5_2 H 0.5122 0.4483 0.0313
N9_2 N 0.5417(5) 0.3793(4) 0.0282(2)
C6_2 C 0.5119(5) 0.3398(3) 0.0380(3)
H6_2 H 0.5277 0.3090 0.0360
N10_2 N 0.3678(12) 0.2978(8) 0.1503(5)
C7_2 C 0.3995(14) 0.3164(9) 0.1277(6)
H7_2 H 0.4359 0.3371 0.1280
N11_2 N 0.3687(14) 0.2994(9) 0.1044(5)
C8_2 C 0.3178(12) 0.2704(8) 0.1127(5)
H8_2 H 0.2886 0.2540 0.1010
N12_2 N 0.3173(11) 0.2694(8) 0.1410(5)
Zn1_2 Zn 0.38085(10) 0.30975(5) 0.06422(3)
Zn2_2 Zn 0.38151(10) 0.30896(5) 0.18972(3)
Zn3_2 Zn 0.62764(8) 0.37826(5) 0.24758(3)
C9_2 C 0.3926(11) 0.2203(8) 0.0288(5)
H9_2 H 0.4338 0.2286 0.0210
N13_2 N 0.3578(11) 0.2458(7) 0.0467(5)
N14_2 N 0.3025(11) 0.2223(8) 0.0529(5)
C10_2 C 0.3031(11) 0.1822(8) 0.0388(5)
H10_2 H 0.2701 0.1589 0.0392
N15_2 N 0.3588(12) 0.1810(8) 0.0239(5)
N16_2 N 0.3744(6) 0.2551(3) 0.21660(16)
N17_2 N 0.3006(5) 0.3495(4) 0.2034(2)
N18_2 N 0.3002(5) 0.3496(4) 0.0498(2)
N19_2 N 0.7083(5) 0.3793(4) 0.2218(2)
Zn4_2 Zn 0.36915(10) 0.44025(5) 0.06422(3)
Zn5_2 Zn 0.36849(10) 0.44104(5) 0.18972(3)
Zn6_2 Zn 0.61849(10) 0.19104(5) 0.31028(3)
Zn7_2 Zn 0.62236(8) 0.37826(5) 0.00242(3)
N20_2 N 0.6412(12) 0.4310(8) 0.2739(5)
Zn8_2 Zn 0.37236(8) 0.12826(5) 0.99758(3)
C2_3 C 0.6220(6) 0.2801(3) 0.00655(17)
H2_3 H 0.6208 0.2854 0.0257
N4_3 N 0.7944(4) 0.3534(4) 0.0487(2)
N5_3 N 0.8006(5) 0.4005(4) 0.0466(2)
C3_3 C 0.7471(5) 0.4169(3) 0.0325(3)
H3_3 H 0.7386 0.4484 0.0281
N6_3 N 0.7079(5) 0.3798(4) 0.0260(2)
C4_3 C 0.7372(5) 0.3406(4) 0.0360(2)
H4_3 H 0.7207 0.3099 0.0344
N7_3 N 0.7949(5) 0.3528(4) 0.1986(2)
N8_3 N 0.8002(5) 0.4004(4) 0.2002(2)
C5_3 C 0.7467(5) 0.4167(3) 0.2145(2)
H5_3 H 0.7378 0.4483 0.2187
C6_3 C 0.7381(5) 0.3398(3) 0.2120(3)
H6_3 H 0.7223 0.3090 0.2140
N10_3 N 0.8822(12) 0.2978(8) 0.0997(5)
C7_3 C 0.8505(14) 0.3164(9) 0.1223(6)
H7_3 H 0.8141 0.3371 0.1220
N11_3 N 0.8813(14) 0.2994(9) 0.1456(5)
C8_3 C 0.9322(12) 0.2704(8) 0.1373(5)
H8_3 H 0.9614 0.2540 0.1490
N12_3 N 0.9327(11) 0.2694(8) 0.1090(5)
Zn1_3 Zn 0.86915(10) 0.30975(5) 0.18578(3)
Zn2_3 Zn 0.86849(10) 0.30896(5) 0.06028(3)
C9_3 C 0.8574(11) 0.2203(8) 0.2212(5)
H9_3 H 0.8162 0.2286 0.2290
N13_3 N 0.8922(11) 0.2458(7) 0.2033(5)
N14_3 N 0.9475(11) 0.2223(8) 0.1971(5)
C10_3 C 0.9469(11) 0.1822(8) 0.2112(5)
H10_3 H 0.9799 0.1589 0.2108
N15_3 N 0.8912(12) 0.1810(8) 0.2261(5)
N16_3 N 0.8756(6) 0.2551(3) 0.03340(16)
N17_3 N 0.9494(5) 0.3495(4) 0.0466(2)
N18_3 N 0.9498(5) 0.3496(4) 0.2002(2)
Zn4_3 Zn 0.88085(10) 0.44025(5) 0.18578(3)
Zn5_3 Zn 0.88151(10) 0.44104(5) 0.06028(3)
Zn8_3 Zn 0.87764(8) 0.12826(5) 0.25242(3)
C1_3 C 0.6249(6) 0.2916(3) 0.96208(16)
H1_3 H 0.6260 0.3063 0.9448
N1_3 N 0.6234(6) 0.3133(3) 0.98678(17)
N2_3 N 0.6226(7) 0.2378(3) 0.99410(17)
N3_3 N 0.6244(6) 0.2449(3) 0.96660(16)
Zn6_3 Zn 0.63151(10) 0.19104(5) 0.93972(3)
N20_3 N 0.6088(12) 0.4310(8) 0.9761(5)
C9_4 C 0.3926(11) 0.0297(8) 0.2212(5)
H9_4 H 0.4338 0.0214 0.2290
N13_4 N 0.3578(11) 0.0042(7) 0.2033(5)
N14_4 N 0.3025(11) 0.0277(8) 0.1971(5)
C10_4 C 0.3031(11) 0.0678(8) 0.2112(5)
H10_4 H 0.2701 0.0911 0.2108
N15_4 N 0.3588(12) 0.0690(8) 0.2261(5)
Zn8_4 Zn 0.37236(8) 0.12174(5) 0.25242(3)
N2_4 N 0.6274(7) 0.0122(3) 0.99410(17)
N3_4 N 0.6256(6) 0.0051(3) 0.96660(16)
Zn6_4 Zn 0.61849(10) 0.05896(5) 0.93972(3)
C2_4 C 0.6280(6) 0.9699(3) 0.00655(17)
H2_4 H 0.6292 0.9646 0.0257
N4_4 N 0.4556(4) 0.8966(4) 0.0487(2)
N5_4 N 0.4494(5) 0.8495(4) 0.0466(2)
C3_4 C 0.5029(5) 0.8331(3) 0.0325(3)
H3_4 H 0.5114 0.8016 0.0281
N6_4 N 0.5421(5) 0.8702(4) 0.0260(2)
C4_4 C 0.5128(5) 0.9094(4) 0.0360(2)
H4_4 H 0.5293 0.9401 0.0344
N7_4 N 0.4551(5) 0.8972(4) 0.1986(2)
N8_4 N 0.4498(5) 0.8496(4) 0.2002(2)
C5_4 C 0.5033(5) 0.8333(3) 0.2145(2)
H5_4 H 0.5122 0.8017 0.2187
C6_4 C 0.5119(5) 0.9102(3) 0.2120(3)
H6_4 H 0.5277 0.9410 0.2140
N10_4 N 0.3678(12) 0.9522(8) 0.0997(5)
C7_4 C 0.3995(14) 0.9336(9) 0.1223(6)
H7_4 H 0.4359 0.9129 0.1220
N11_4 N 0.3687(14) 0.9506(9) 0.1456(5)
C8_4 C 0.3178(12) 0.9796(8) 0.1373(5)
H8_4 H 0.2886 0.9960 0.1490
N12_4 N 0.3173(11) 0.9806(8) 0.1090(5)
Zn1_4 Zn 0.38085(10) 0.94025(5) 0.18578(3)
Zn2_4 Zn 0.38151(10) 0.94104(5) 0.06028(3)
N16_4 N 0.3744(6) 0.9949(3) 0.03340(16)
N17_4 N 0.3006(5) 0.9005(4) 0.0466(2)
N18_4 N 0.3002(5) 0.9004(4) 0.2002(2)
Zn4_4 Zn 0.36915(10) 0.80975(5) 0.18578(3)
Zn5_4 Zn 0.36849(10) 0.80896(5) 0.06028(3)
C1_4 C 0.6251(6) 0.9584(3) 0.96208(16)
H1_4 H 0.6240 0.9437 0.9448
N1_4 N 0.6266(6) 0.9367(3) 0.98678(17)
N20_4 N 0.6412(12) 0.8190(8) 0.9761(5)
C1_5 C 0.6249(6) 0.4584(3) 0.78792(16)
H1_5 H 0.6260 0.4437 0.8052
N1_5 N 0.6234(6) 0.4367(3) 0.76322(17)
C2_5 C 0.6220(6) 0.4699(3) 0.74345(17)
H2_5 H 0.6208 0.4646 0.7243
N2_5 N 0.6226(7) 0.5122(3) 0.75590(17)
N3_5 N 0.6244(6) 0.5051(3) 0.78340(16)
N4_5 N 0.7944(4) 0.3966(4) 0.7013(2)
N5_5 N 0.8006(5) 0.3495(4) 0.7034(2)
C3_5 C 0.7471(5) 0.3331(3) 0.7175(3)
H3_5 H 0.7386 0.3016 0.7219
N6_5 N 0.7079(5) 0.3702(4) 0.7240(2)
C4_5 C 0.7372(5) 0.4094(4) 0.7140(2)
H4_5 H 0.7207 0.4401 0.7156
N7_5 N 0.7949(5) 0.3972(4) 0.5514(2)
N8_5 N 0.8002(5) 0.3496(4) 0.5498(2)
C5_5 C 0.7467(5) 0.3333(3) 0.5355(2)
H5_5 H 0.7378 0.3017 0.5313
N9_3 N 0.7083(5) 0.3707(4) 0.5282(2)
C6_5 C 0.7381(5) 0.4102(3) 0.5380(3)
H6_5 H 0.7223 0.4410 0.5360
N10_5 N 0.8822(12) 0.4522(8) 0.6503(5)
C7_5 C 0.8505(14) 0.4336(9) 0.6277(6)
H7_5 H 0.8141 0.4129 0.6280
N11_5 N 0.8813(14) 0.4506(9) 0.6044(5)
C8_5 C 0.9322(12) 0.4796(8) 0.6127(5)
H8_5 H 0.9614 0.4960 0.6010
N12_5 N 0.9327(11) 0.4806(8) 0.6410(5)
Zn1_5 Zn 0.86915(10) 0.44025(5) 0.56422(3)
Zn2_5 Zn 0.86849(10) 0.44104(5) 0.68972(3)
Zn3_3 Zn 0.62236(8) 0.37174(5) 0.74758(3)
C9_5 C 0.8574(11) 0.5297(8) 0.5288(5)
H9_5 H 0.8162 0.5214 0.5210
N13_5 N 0.8922(11) 0.5042(7) 0.5467(5)
N14_5 N 0.9475(11) 0.5277(8) 0.5529(5)
C10_5 C 0.9469(11) 0.5678(8) 0.5388(5)
H10_5 H 0.9799 0.5911 0.5392
N15_5 N 0.8912(12) 0.5690(8) 0.5239(5)
N16_5 N 0.8756(6) 0.4949(3) 0.71660(16)
N17_5 N 0.9494(5) 0.4005(4) 0.7034(2)
N18_5 N 0.9498(5) 0.4004(4) 0.5498(2)
N19_3 N 0.5417(5) 0.3707(4) 0.7218(2)
Zn4_5 Zn 0.88085(10) 0.30975(5) 0.56422(3)
Zn5_5 Zn 0.88151(10) 0.30896(5) 0.68972(3)
Zn6_5 Zn 0.63151(10) 0.55896(5) 0.81028(3)
Zn7_3 Zn 0.62764(8) 0.37174(5) 0.50242(3)
Zn8_5 Zn 0.87764(8) 0.62174(5) 0.49758(3)
N20_5 N 0.6088(12) 0.3190(8) 0.7739(5)
C1_6 C 0.6251(6) 0.7916(3) 0.78792(16)
H1_6 H 0.6240 0.8063 0.8052
N1_6 N 0.6266(6) 0.8133(3) 0.76322(17)
C2_6 C 0.6280(6) 0.7801(3) 0.74345(17)
H2_6 H 0.6292 0.7854 0.7243
N2_6 N 0.6274(7) 0.7378(3) 0.75590(17)
N3_6 N 0.6256(6) 0.7449(3) 0.78340(16)
N4_6 N 0.4556(4) 0.8534(4) 0.7013(2)
N5_6 N 0.4494(5) 0.9005(4) 0.7034(2)
C3_6 C 0.5029(5) 0.9169(3) 0.7175(3)
H3_6 H 0.5114 0.9484 0.7219
N6_6 N 0.5421(5) 0.8798(4) 0.7240(2)
C4_6 C 0.5128(5) 0.8406(4) 0.7140(2)
H4_6 H 0.5293 0.8099 0.7156
N7_6 N 0.4551(5) 0.8528(4) 0.5514(2)
N8_6 N 0.4498(5) 0.9004(4) 0.5498(2)
C5_6 C 0.5033(5) 0.9167(3) 0.5355(2)
H5_6 H 0.5122 0.9483 0.5313
N9_4 N 0.5417(5) 0.8793(4) 0.5282(2)
C6_6 C 0.5119(5) 0.8398(3) 0.5380(3)
H6_6 H 0.5277 0.8090 0.5360
N10_6 N 0.3678(12) 0.7978(8) 0.6503(5)
C7_6 C 0.3995(14) 0.8164(9) 0.6277(6)
H7_6 H 0.4359 0.8371 0.6280
N11_6 N 0.3687(14) 0.7994(9) 0.6044(5)
C8_6 C 0.3178(12) 0.7704(8) 0.6127(5)
H8_6 H 0.2886 0.7540 0.6010
N12_6 N 0.3173(11) 0.7694(8) 0.6410(5)
Zn1_6 Zn 0.38085(10) 0.80975(5) 0.56422(3)
Zn2_6 Zn 0.38151(10) 0.80896(5) 0.68972(3)
Zn3_4 Zn 0.62764(8) 0.87826(5) 0.74758(3)
C9_6 C 0.3926(11) 0.7203(8) 0.5288(5)
H9_6 H 0.4338 0.7286 0.5210
N13_6 N 0.3578(11) 0.7458(7) 0.5467(5)
N14_6 N 0.3025(11) 0.7223(8) 0.5529(5)
C10_6 C 0.3031(11) 0.6822(8) 0.5388(5)
H10_6 H 0.2701 0.6589 0.5392
N15_6 N 0.3588(12) 0.6810(8) 0.5239(5)
N16_6 N 0.3744(6) 0.7551(3) 0.71660(16)
N17_6 N 0.3006(5) 0.8495(4) 0.7034(2)
N18_6 N 0.3002(5) 0.8496(4) 0.5498(2)
N19_4 N 0.7083(5) 0.8793(4) 0.7218(2)
Zn4_6 Zn 0.36915(10) 0.94025(5) 0.56422(3)
Zn5_6 Zn 0.36849(10) 0.94104(5) 0.68972(3)
Zn6_6 Zn 0.61849(10) 0.69104(5) 0.81028(3)
Zn7_4 Zn 0.62236(8) 0.87826(5) 0.50242(3)
Zn8_6 Zn 0.37236(8) 0.62826(5) 0.49758(3)
N20_6 N 0.6412(12) 0.9310(8) 0.7739(5)
C1_7 C 0.6249(6) 0.7916(3) 0.46208(16)
H1_7 H 0.6260 0.8063 0.4448
N1_7 N 0.6234(6) 0.8133(3) 0.48678(17)
C2_7 C 0.6220(6) 0.7801(3) 0.50655(17)
H2_7 H 0.6208 0.7854 0.5257
N2_7 N 0.6226(7) 0.7378(3) 0.49410(17)
N3_7 N 0.6244(6) 0.7449(3) 0.46660(16)
N4_7 N 0.7944(4) 0.8534(4) 0.5487(2)
N5_7 N 0.8006(5) 0.9005(4) 0.5466(2)
C3_7 C 0.7471(5) 0.9169(3) 0.5325(3)
H3_7 H 0.7386 0.9484 0.5281
N6_7 N 0.7079(5) 0.8798(4) 0.5260(2)
C4_7 C 0.7372(5) 0.8406(4) 0.5360(2)
H4_7 H 0.7207 0.8099 0.5344
N7_7 N 0.7949(5) 0.8528(4) 0.6986(2)
N8_7 N 0.8002(5) 0.9004(4) 0.7002(2)
C5_7 C 0.7467(5) 0.9167(3) 0.7145(2)
H5_7 H 0.7378 0.9483 0.7187
C6_7 C 0.7381(5) 0.8398(3) 0.7120(3)
H6_7 H 0.7223 0.8090 0.7140
N10_7 N 0.8822(12) 0.7978(8) 0.5997(5)
C7_7 C 0.8505(14) 0.8164(9) 0.6223(6)
H7_7 H 0.8141 0.8371 0.6220
N11_7 N 0.8813(14) 0.7994(9) 0.6456(5)
C8_7 C 0.9322(12) 0.7704(8) 0.6373(5)
H8_7 H 0.9614 0.7540 0.6490
N12_7 N 0.9327(11) 0.7694(8) 0.6090(5)
Zn1_7 Zn 0.86915(10) 0.80975(5) 0.68578(3)
Zn2_7 Zn 0.86849(10) 0.80896(5) 0.56028(3)
C9_7 C 0.8574(11) 0.7203(8) 0.7212(5)
H9_7 H 0.8162 0.7286 0.7290
N13_7 N 0.8922(11) 0.7458(7) 0.7033(5)
N14_7 N 0.9475(11) 0.7223(8) 0.6971(5)
C10_7 C 0.9469(11) 0.6822(8) 0.7112(5)
H10_7 H 0.9799 0.6589 0.7108
N15_7 N 0.8912(12) 0.6810(8) 0.7261(5)
N16_7 N 0.8756(6) 0.7551(3) 0.53340(16)
N17_7 N 0.9494(5) 0.8495(4) 0.5466(2)
N18_7 N 0.9498(5) 0.8496(4) 0.7002(2)
Zn4_7 Zn 0.88085(10) 0.94025(5) 0.68578(3)
Zn5_7 Zn 0.88151(10) 0.94104(5) 0.56028(3)
Zn6_7 Zn 0.63151(10) 0.69104(5) 0.43972(3)
Zn8_7 Zn 0.87764(8) 0.62826(5) 0.75242(3)
N20_7 N 0.6088(12) 0.9310(8) 0.4761(5)
C1_8 C 0.6251(6) 0.4584(3) 0.46208(16)
H1_8 H 0.6240 0.4437 0.4448
N1_8 N 0.6266(6) 0.4367(3) 0.48678(17)
C2_8 C 0.6280(6) 0.4699(3) 0.50655(17)
H2_8 H 0.6292 0.4646 0.5257
N2_8 N 0.6274(7) 0.5122(3) 0.49410(17)
N3_8 N 0.6256(6) 0.5051(3) 0.46660(16)
N4_8 N 0.4556(4) 0.3966(4) 0.5487(2)
N5_8 N 0.4494(5) 0.3495(4) 0.5466(2)
C3_8 C 0.5029(5) 0.3331(3) 0.5325(3)
H3_8 H 0.5114 0.3016 0.5281
N6_8 N 0.5421(5) 0.3702(4) 0.5260(2)
C4_8 C 0.5128(5) 0.4094(4) 0.5360(2)
H4_8 H 0.5293 0.4401 0.5344
N7_8 N 0.4551(5) 0.3972(4) 0.6986(2)
N8_8 N 0.4498(5) 0.3496(4) 0.7002(2)
C5_8 C 0.5033(5) 0.3333(3) 0.7145(2)
H5_8 H 0.5122 0.3017 0.7187
C6_8 C 0.5119(5) 0.4102(3) 0.7120(3)
H6_8 H 0.5277 0.4410 0.7140
N10_8 N 0.3678(12) 0.4522(8) 0.5997(5)
C7_8 C 0.3995(14) 0.4336(9) 0.6223(6)
H7_8 H 0.4359 0.4129 0.6220
N11_8 N 0.3687(14) 0.4506(9) 0.6456(5)
C8_8 C 0.3178(12) 0.4796(8) 0.6373(5)
H8_8 H 0.2886 0.4960 0.6490
N12_8 N 0.3173(11) 0.4806(8) 0.6090(5)
Zn1_8 Zn 0.38085(10) 0.44025(5) 0.68578(3)
Zn2_8 Zn 0.38151(10) 0.44104(5) 0.56028(3)
C9_8 C 0.3926(11) 0.5297(8) 0.7212(5)
H9_8 H 0.4338 0.5214 0.7290
N13_8 N 0.3578(11) 0.5042(7) 0.7033(5)
N14_8 N 0.3025(11) 0.5277(8) 0.6971(5)
C10_8 C 0.3031(11) 0.5678(8) 0.7112(5)
H10_8 H 0.2701 0.5911 0.7108
N15_8 N 0.3588(12) 0.5690(8) 0.7261(5)
N16_8 N 0.3744(6) 0.4949(3) 0.53340(16)
N17_8 N 0.3006(5) 0.4005(4) 0.5466(2)
N18_8 N 0.3002(5) 0.4004(4) 0.7002(2)
Zn4_8 Zn 0.36915(10) 0.30975(5) 0.68578(3)
Zn5_8 Zn 0.36849(10) 0.30896(5) 0.56028(3)
Zn6_8 Zn 0.61849(10) 0.55896(5) 0.43972(3)
Zn8_8 Zn 0.37236(8) 0.62174(5) 0.75242(3)
N20_8 N 0.6412(12) 0.3190(8) 0.4761(5)
N2_9 N 0.1226(7) 0.0122(3) 0.75590(17)
N3_9 N 0.1244(6) 0.0051(3) 0.78340(16)
C9_9 C 0.3574(11) 0.0297(8) 0.5288(5)
H9_9 H 0.3162 0.0214 0.5210
N13_9 N 0.3922(11) 0.0042(7) 0.5467(5)
N14_9 N 0.4475(11) 0.0277(8) 0.5529(5)
C10_9 C 0.4469(11) 0.0678(8) 0.5388(5)
H10_9 H 0.4799 0.0911 0.5392
N15_9 N 0.3912(12) 0.0690(8) 0.5239(5)
Zn6_9 Zn 0.13151(10) 0.05896(5) 0.81028(3)
Zn8_9 Zn 0.37764(8) 0.12174(5) 0.49758(3)
C1_9 C 0.1249(6) 0.9584(3) 0.78792(16)
H1_9 H 0.1260 0.9437 0.8052
N1_9 N 0.1234(6) 0.9367(3) 0.76322(17)
C2_9 C 0.1220(6) 0.9699(3) 0.74345(17)
H2_9 H 0.1208 0.9646 0.7243
N4_9 N 0.2944(4) 0.8966(4) 0.7013(2)
C3_9 C 0.2471(5) 0.8331(3) 0.7175(3)
H3_9 H 0.2386 0.8016 0.7219
N6_9 N 0.2079(5) 0.8702(4) 0.7240(2)
C4_9 C 0.2372(5) 0.9094(4) 0.7140(2)
H4_9 H 0.2207 0.9401 0.7156
N7_9 N 0.2949(5) 0.8972(4) 0.5514(2)
C5_9 C 0.2467(5) 0.8333(3) 0.5355(2)
H5_9 H 0.2378 0.8017 0.5313
N9_5 N 0.2083(5) 0.8707(4) 0.5282(2)
C6_9 C 0.2381(5) 0.9102(3) 0.5380(3)
H6_9 H 0.2223 0.9410 0.5360
N10_9 N 0.3822(12) 0.9522(8) 0.6503(5)
C7_9 C 0.3505(14) 0.9336(9) 0.6277(6)
H7_9 H 0.3141 0.9129 0.6280
N11_9 N 0.3813(14) 0.9506(9) 0.6044(5)
C8_9 C 0.4322(12) 0.9796(8) 0.6127(5)
H8_9 H 0.4614 0.9960 0.6010
N12_9 N 0.4327(11) 0.9806(8) 0.6410(5)
Zn3_5 Zn 0.12236(8) 0.87174(5) 0.74758(3)
N16_9 N 0.3756(6) 0.9949(3) 0.71660(16)
N19_5 N 0.0417(5) 0.8707(4) 0.7218(2)
Zn7_5 Zn 0.12764(8) 0.87174(5) 0.50242(3)
N20_9 N 0.1088(12) 0.8190(8) 0.7739(5)
C1_10 C 0.1251(6) 0.2916(3) 0.78792(16)
H1_10 H 0.1240 0.3063 0.8052
N1_10 N 0.1266(6) 0.3133(3) 0.76322(17)
C2_10 C 0.1280(6) 0.2801(3) 0.74345(17)
H2_10 H 0.1292 0.2854 0.7243
N2_10 N 0.1274(7) 0.2378(3) 0.75590(17)
N3_10 N 0.1256(6) 0.2449(3) 0.78340(16)
C3_10 C 0.0029(5) 0.4169(3) 0.7175(3)
H3_10 H 0.0114 0.4484 0.7219
N6_10 N 0.0421(5) 0.3798(4) 0.7240(2)
C4_10 C 0.0128(5) 0.3406(4) 0.7140(2)
H4_10 H 0.0293 0.3099 0.7156
C5_10 C 0.0033(5) 0.4167(3) 0.5355(2)
H5_10 H 0.0122 0.4483 0.5313
N9_6 N 0.0417(5) 0.3793(4) 0.5282(2)
C6_10 C 0.0119(5) 0.3398(3) 0.5380(3)
H6_10 H 0.0277 0.3090 0.5360
Zn3_6 Zn 0.12764(8) 0.37826(5) 0.74758(3)
N19_6 N 0.2083(5) 0.3793(4) 0.7218(2)
Zn6_10 Zn 0.11849(10) 0.19104(5) 0.81028(3)
Zn7_6 Zn 0.12236(8) 0.37826(5) 0.50242(3)
N20_10 N 0.1412(12) 0.4310(8) 0.7739(5)
N4_10 N 0.9556(4) 0.3534(4) 0.7013(2)
N7_10 N 0.9551(5) 0.3528(4) 0.5514(2)
N10_10 N 0.8678(12) 0.2978(8) 0.6503(5)
C7_10 C 0.8995(14) 0.3164(9) 0.6277(6)
H7_10 H 0.9359 0.3371 0.6280
N11_10 N 0.8687(14) 0.2994(9) 0.6044(5)
C8_10 C 0.8178(12) 0.2704(8) 0.6127(5)
H8_10 H 0.7886 0.2540 0.6010
N12_10 N 0.8173(11) 0.2694(8) 0.6410(5)
C9_10 C 0.8926(11) 0.2203(8) 0.5288(5)
H9_10 H 0.9338 0.2286 0.5210
N13_10 N 0.8578(11) 0.2458(7) 0.5467(5)
N14_10 N 0.8025(11) 0.2223(8) 0.5529(5)
C10_10 C 0.8031(11) 0.1822(8) 0.5388(5)
H10_10 H 0.7701 0.1589 0.5392
N15_10 N 0.8588(12) 0.1810(8) 0.5239(5)
N16_10 N 0.8744(6) 0.2551(3) 0.71660(16)
Zn8_10 Zn 0.87236(8) 0.12826(5) 0.49758(3)
C1_11 C 0.1249(6) 0.2916(3) 0.46208(16)
H1_11 H 0.1260 0.3063 0.4448
N1_11 N 0.1234(6) 0.3133(3) 0.48678(17)
C2_11 C 0.1220(6) 0.2801(3) 0.50655(17)
H2_11 H 0.1208 0.2854 0.5257
N2_11 N 0.1226(7) 0.2378(3) 0.49410(17)
N3_11 N 0.1244(6) 0.2449(3) 0.46660(16)
N4_11 N 0.2944(4) 0.3534(4) 0.5487(2)
C3_11 C 0.2471(5) 0.4169(3) 0.5325(3)
H3_11 H 0.2386 0.4484 0.5281
N6_11 N 0.2079(5) 0.3798(4) 0.5260(2)
C4_11 C 0.2372(5) 0.3406(4) 0.5360(2)
H4_11 H 0.2207 0.3099 0.5344
N7_11 N 0.2949(5) 0.3528(4) 0.6986(2)
C5_11 C 0.2467(5) 0.4167(3) 0.7145(2)
H5_11 H 0.2378 0.4483 0.7187
C6_11 C 0.2381(5) 0.3398(3) 0.7120(3)
H6_11 H 0.2223 0.3090 0.7140
N10_11 N 0.3822(12) 0.2978(8) 0.5997(5)
C7_11 C 0.3505(14) 0.3164(9) 0.6223(6)
H7_11 H 0.3141 0.3371 0.6220
N11_11 N 0.3813(14) 0.2994(9) 0.6456(5)
C8_11 C 0.4322(12) 0.2704(8) 0.6373(5)
H8_11 H 0.4614 0.2540 0.6490
N12_11 N 0.4327(11) 0.2694(8) 0.6090(5)
C9_11 C 0.3574(11) 0.2203(8) 0.7212(5)
H9_11 H 0.3162 0.2286 0.7290
N13_11 N 0.3922(11) 0.2458(7) 0.7033(5)
N14_11 N 0.4475(11) 0.2223(8) 0.6971(5)
C10_11 C 0.4469(11) 0.1822(8) 0.7112(5)
H10_11 H 0.4799 0.1589 0.7108
N15_11 N 0.3912(12) 0.1810(8) 0.7261(5)
N16_11 N 0.3756(6) 0.2551(3) 0.53340(16)
Zn6_11 Zn 0.13151(10) 0.19104(5) 0.43972(3)
Zn8_11 Zn 0.37764(8) 0.12826(5) 0.75242(3)
N20_11 N 0.1088(12) 0.4310(8) 0.4761(5)
N2_12 N 0.1274(7) 0.0122(3) 0.49410(17)
N3_12 N 0.1256(6) 0.0051(3) 0.46660(16)
Zn6_12 Zn 0.11849(10) 0.05896(5) 0.43972(3)
C1_12 C 0.1251(6) 0.9584(3) 0.46208(16)
H1_12 H 0.1240 0.9437 0.4448
N1_12 N 0.1266(6) 0.9367(3) 0.48678(17)
C2_12 C 0.1280(6) 0.9699(3) 0.50655(17)
H2_12 H 0.1292 0.9646 0.5257
C3_12 C 0.0029(5) 0.8331(3) 0.5325(3)
H3_12 H 0.0114 0.8016 0.5281
N6_12 N 0.0421(5) 0.8702(4) 0.5260(2)
C4_12 C 0.0128(5) 0.9094(4) 0.5360(2)
H4_12 H 0.0293 0.9401 0.5344
C5_12 C 0.0033(5) 0.8333(3) 0.7145(2)
H5_12 H 0.0122 0.8017 0.7187
C6_12 C 0.0119(5) 0.9102(3) 0.7120(3)
H6_12 H 0.0277 0.9410 0.7140
N20_12 N 0.1412(12) 0.8190(8) 0.4761(5)
C9_12 C 0.8926(11) 0.0297(8) 0.7212(5)
H9_12 H 0.9338 0.0214 0.7290
N13_12 N 0.8578(11) 0.0042(7) 0.7033(5)
N14_12 N 0.8025(11) 0.0277(8) 0.6971(5)
C10_12 C 0.8031(11) 0.0678(8) 0.7112(5)
H10_12 H 0.7701 0.0911 0.7108
N15_12 N 0.8588(12) 0.0690(8) 0.7261(5)
Zn8_12 Zn 0.87236(8) 0.12174(5) 0.75242(3)
N4_12 N 0.9556(4) 0.8966(4) 0.5487(2)
N7_12 N 0.9551(5) 0.8972(4) 0.6986(2)
N10_12 N 0.8678(12) 0.9522(8) 0.5997(5)
C7_12 C 0.8995(14) 0.9336(9) 0.6223(6)
H7_12 H 0.9359 0.9129 0.6220
N11_12 N 0.8687(14) 0.9506(9) 0.6456(5)
C8_12 C 0.8178(12) 0.9796(8) 0.6373(5)
H8_12 H 0.7886 0.9960 0.6490
N12_12 N 0.8173(11) 0.9806(8) 0.6090(5)
N16_12 N 0.8744(6) 0.9949(3) 0.53340(16)
C1_13 C 0.1249(6) 0.4584(3) 0.28792(16)
H1_13 H 0.1260 0.4437 0.3052
N1_13 N 0.1234(6) 0.4367(3) 0.26322(17)
C2_13 C 0.1220(6) 0.4699(3) 0.24345(17)
H2_13 H 0.1208 0.4646 0.2243
N2_13 N 0.1226(7) 0.5122(3) 0.25590(17)
N3_13 N 0.1244(6) 0.5051(3) 0.28340(16)
N4_13 N 0.2944(4) 0.3966(4) 0.2013(2)
C3_13 C 0.2471(5) 0.3331(3) 0.2175(3)
H3_13 H 0.2386 0.3016 0.2219
N6_13 N 0.2079(5) 0.3702(4) 0.2240(2)
C4_13 C 0.2372(5) 0.4094(4) 0.2140(2)
H4_13 H 0.2207 0.4401 0.2156
N7_13 N 0.2949(5) 0.3972(4) 0.0514(2)
C5_13 C 0.2467(5) 0.3333(3) 0.0355(2)
H5_13 H 0.2378 0.3017 0.0313
N9_7 N 0.2083(5) 0.3707(4) 0.0282(2)
C6_13 C 0.2381(5) 0.4102(3) 0.0380(3)
H6_13 H 0.2223 0.4410 0.0360
N10_13 N 0.3822(12) 0.4522(8) 0.1503(5)
C7_13 C 0.3505(14) 0.4336(9) 0.1277(6)
H7_13 H 0.3141 0.4129 0.1280
N11_13 N 0.3813(14) 0.4506(9) 0.1044(5)
C8_13 C 0.4322(12) 0.4796(8) 0.1127(5)
H8_13 H 0.4614 0.4960 0.1010
N12_13 N 0.4327(11) 0.4806(8) 0.1410(5)
Zn3_7 Zn 0.12236(8) 0.37174(5) 0.24758(3)
C9_13 C 0.3574(11) 0.5297(8) 0.0288(5)
H9_13 H 0.3162 0.5214 0.0210
N13_13 N 0.3922(11) 0.5042(7) 0.0467(5)
N14_13 N 0.4475(11) 0.5277(8) 0.0529(5)
C10_13 C 0.4469(11) 0.5678(8) 0.0388(5)
H10_13 H 0.4799 0.5911 0.0392
N15_13 N 0.3912(12) 0.5690(8) 0.0239(5)
N16_13 N 0.3756(6) 0.4949(3) 0.21660(16)
N19_7 N 0.0417(5) 0.3707(4) 0.2218(2)
Zn6_13 Zn 0.13151(10) 0.55896(5) 0.31028(3)
Zn7_7 Zn 0.12764(8) 0.37174(5) 0.00242(3)
N20_13 N 0.1088(12) 0.3190(8) 0.2739(5)
Zn8_13 Zn 0.37764(8) 0.62174(5) 0.99758(3)
C1_14 C 0.1251(6) 0.7916(3) 0.28792(16)
H1_14 H 0.1240 0.8063 0.3052
N1_14 N 0.1266(6) 0.8133(3) 0.26322(17)
C2_14 C 0.1280(6) 0.7801(3) 0.24345(17)
H2_14 H 0.1292 0.7854 0.2243
N2_14 N 0.1274(7) 0.7378(3) 0.25590(17)
N3_14 N 0.1256(6) 0.7449(3) 0.28340(16)
C3_14 C 0.0029(5) 0.9169(3) 0.2175(3)
H3_14 H 0.0114 0.9484 0.2219
N6_14 N 0.0421(5) 0.8798(4) 0.2240(2)
C4_14 C 0.0128(5) 0.8406(4) 0.2140(2)
H4_14 H 0.0293 0.8099 0.2156
C5_14 C 0.0033(5) 0.9167(3) 0.0355(2)
H5_14 H 0.0122 0.9483 0.0313
N9_8 N 0.0417(5) 0.8793(4) 0.0282(2)
C6_14 C 0.0119(5) 0.8398(3) 0.0380(3)
H6_14 H 0.0277 0.8090 0.0360
Zn3_8 Zn 0.12764(8) 0.87826(5) 0.24758(3)
N19_8 N 0.2083(5) 0.8793(4) 0.2218(2)
Zn6_14 Zn 0.11849(10) 0.69104(5) 0.31028(3)
Zn7_8 Zn 0.12236(8) 0.87826(5) 0.00242(3)
N20_14 N 0.1412(12) 0.9310(8) 0.2739(5)
N4_14 N 0.9556(4) 0.8534(4) 0.2013(2)
N7_14 N 0.9551(5) 0.8528(4) 0.0514(2)
N10_14 N 0.8678(12) 0.7978(8) 0.1503(5)
C7_14 C 0.8995(14) 0.8164(9) 0.1277(6)
H7_14 H 0.9359 0.8371 0.1280
N11_14 N 0.8687(14) 0.7994(9) 0.1044(5)
C8_14 C 0.8178(12) 0.7704(8) 0.1127(5)
H8_14 H 0.7886 0.7540 0.1010
N12_14 N 0.8173(11) 0.7694(8) 0.1410(5)
C9_14 C 0.8926(11) 0.7203(8) 0.0288(5)
H9_14 H 0.9338 0.7286 0.0210
N13_14 N 0.8578(11) 0.7458(7) 0.0467(5)
N14_14 N 0.8025(11) 0.7223(8) 0.0529(5)
C10_14 C 0.8031(11) 0.6822(8) 0.0388(5)
H10_14 H 0.7701 0.6589 0.0392
N15_14 N 0.8588(12) 0.6810(8) 0.0239(5)
N16_14 N 0.8744(6) 0.7551(3) 0.21660(16)
Zn8_14 Zn 0.87236(8) 0.62826(5) 0.99758(3)
C2_15 C 0.1220(6) 0.7801(3) 0.00655(17)
H2_15 H 0.1208 0.7854 0.0257
N4_15 N 0.2944(4) 0.8534(4) 0.0487(2)
C3_15 C 0.2471(5) 0.9169(3) 0.0325(3)
H3_15 H 0.2386 0.9484 0.0281
N6_15 N 0.2079(5) 0.8798(4) 0.0260(2)
C4_15 C 0.2372(5) 0.8406(4) 0.0360(2)
H4_15 H 0.2207 0.8099 0.0344
N7_15 N 0.2949(5) 0.8528(4) 0.1986(2)
C5_15 C 0.2467(5) 0.9167(3) 0.2145(2)
H5_15 H 0.2378 0.9483 0.2187
C6_15 C 0.2381(5) 0.8398(3) 0.2120(3)
H6_15 H 0.2223 0.8090 0.2140
N10_15 N 0.3822(12) 0.7978(8) 0.0997(5)
C7_15 C 0.3505(14) 0.8164(9) 0.1223(6)
H7_15 H 0.3141 0.8371 0.1220
N11_15 N 0.3813(14) 0.7994(9) 0.1456(5)
C8_15 C 0.4322(12) 0.7704(8) 0.1373(5)
H8_15 H 0.4614 0.7540 0.1490
N12_15 N 0.4327(11) 0.7694(8) 0.1090(5)
C9_15 C 0.3574(11) 0.7203(8) 0.2212(5)
H9_15 H 0.3162 0.7286 0.2290
N13_15 N 0.3922(11) 0.7458(7) 0.2033(5)
N14_15 N 0.4475(11) 0.7223(8) 0.1971(5)
C10_15 C 0.4469(11) 0.6822(8) 0.2112(5)
H10_15 H 0.4799 0.6589 0.2108
N15_15 N 0.3912(12) 0.6810(8) 0.2261(5)
N16_15 N 0.3756(6) 0.7551(3) 0.03340(16)
Zn8_15 Zn 0.37764(8) 0.62826(5) 0.25242(3)
C1_15 C 0.1249(6) 0.7916(3) 0.96208(16)
H1_15 H 0.1260 0.8063 0.9448
N1_15 N 0.1234(6) 0.8133(3) 0.98678(17)
N2_15 N 0.1226(7) 0.7378(3) 0.99410(17)
N3_15 N 0.1244(6) 0.7449(3) 0.96660(16)
Zn6_15 Zn 0.13151(10) 0.69104(5) 0.93972(3)
N20_15 N 0.1088(12) 0.9310(8) 0.9761(5)
C2_16 C 0.1280(6) 0.4699(3) 0.00655(17)
H2_16 H 0.1292 0.4646 0.0257
C3_16 C 0.0029(5) 0.3331(3) 0.0325(3)
H3_16 H 0.0114 0.3016 0.0281
N6_16 N 0.0421(5) 0.3702(4) 0.0260(2)
C4_16 C 0.0128(5) 0.4094(4) 0.0360(2)
H4_16 H 0.0293 0.4401 0.0344
C5_16 C 0.0033(5) 0.3333(3) 0.2145(2)
H5_16 H 0.0122 0.3017 0.2187
C6_16 C 0.0119(5) 0.4102(3) 0.2120(3)
H6_16 H 0.0277 0.4410 0.2140
C1_16 C 0.1251(6) 0.4584(3) 0.96208(16)
H1_16 H 0.1240 0.4437 0.9448
N1_16 N 0.1266(6) 0.4367(3) 0.98678(17)
N2_16 N 0.1274(7) 0.5122(3) 0.99410(17)
N3_16 N 0.1256(6) 0.5051(3) 0.96660(16)
Zn6_16 Zn 0.11849(10) 0.55896(5) 0.93972(3)
N20_16 N 0.1412(12) 0.3190(8) 0.9761(5)
N4_16 N 0.9556(4) 0.3966(4) 0.0487(2)
N7_16 N 0.9551(5) 0.3972(4) 0.1986(2)
N10_16 N 0.8678(12) 0.4522(8) 0.0997(5)
C7_16 C 0.8995(14) 0.4336(9) 0.1223(6)
H7_16 H 0.9359 0.4129 0.1220
N11_16 N 0.8687(14) 0.4506(9) 0.1456(5)
C8_16 C 0.8178(12) 0.4796(8) 0.1373(5)
H8_16 H 0.7886 0.4960 0.1490
N12_16 N 0.8173(11) 0.4806(8) 0.1090(5)
C9_16 C 0.8926(11) 0.5297(8) 0.2212(5)
H9_16 H 0.9338 0.5214 0.2290
N13_16 N 0.8578(11) 0.5042(7) 0.2033(5)
N14_16 N 0.8025(11) 0.5277(8) 0.1971(5)
C10_16 C 0.8031(11) 0.5678(8) 0.2112(5)
H10_16 H 0.7701 0.5911 0.2108
N15_16 N 0.8588(12) 0.5690(8) 0.2261(5)
N16_16 N 0.8744(6) 0.4949(3) 0.03340(16)
Zn8_16 Zn 0.87236(8) 0.62174(5) 0.25242(3)
C1_17 C 0.3751(6) 0.0416(3) 0.71208(16)
H1_17 H 0.3740 0.0563 0.6948
N1_17 N 0.3766(6) 0.0633(3) 0.73678(17)
C2_17 C 0.3780(6) 0.0301(3) 0.75655(17)
H2_17 H 0.3792 0.0354 0.7757
N4_17 N 0.2056(4) 0.1034(4) 0.7987(2)
N5_9 N 0.1994(5) 0.1505(4) 0.7966(2)
C3_17 C 0.2529(5) 0.1669(3) 0.7825(3)
H3_17 H 0.2614 0.1984 0.7781
N6_17 N 0.2921(5) 0.1298(4) 0.7760(2)
C4_17 C 0.2628(5) 0.0906(4) 0.7860(2)
H4_17 H 0.2793 0.0599 0.7844
N7_17 N 0.2051(5) 0.1028(4) 0.9486(2)
N8_9 N 0.1998(5) 0.1504(4) 0.9502(2)
C5_17 C 0.2533(5) 0.1667(3) 0.9645(2)
H5_17 H 0.2622 0.1983 0.9687
N9_9 N 0.2917(5) 0.1293(4) 0.9718(2)
C6_17 C 0.2619(5) 0.0898(3) 0.9620(3)
H6_17 H 0.2777 0.0590 0.9640
N10_17 N 0.1178(12) 0.0478(8) 0.8497(5)
C7_17 C 0.1495(14) 0.0664(9) 0.8723(6)
H7_17 H 0.1859 0.0871 0.8720
N11_17 N 0.1187(14) 0.0494(9) 0.8956(5)
C8_17 C 0.0678(12) 0.0204(8) 0.8873(5)
H8_17 H 0.0386 0.0040 0.8990
N12_17 N 0.0673(11) 0.0194(8) 0.8590(5)
Zn1_9 Zn 0.13085(10) 0.05975(5) 0.93578(3)
N17_9 N 0.0506(5) 0.0995(4) 0.7966(2)
N18_9 N 0.0502(5) 0.0996(4) 0.9502(2)
N19_9 N 0.4583(5) 0.1293(4) 0.7782(2)
Zn4_9 Zn 0.11915(10) 0.19025(5) 0.93578(3)
N2_17 N 0.3774(7) 0.9878(3) 0.74410(17)
C9_17 C 0.1426(11) 0.9703(8) 0.9712(5)
H9_17 H 0.1838 0.9786 0.9790
N13_17 N 0.1078(11) 0.9958(7) 0.9533(5)
N14_17 N 0.0525(11) 0.9723(8) 0.9471(5)
C10_17 C 0.0531(11) 0.9322(8) 0.9612(5)
H10_17 H 0.0201 0.9089 0.9608
C1_18 C 0.3749(6) 0.7084(3) 0.71208(16)
H1_18 H 0.3760 0.6937 0.6948
N1_18 N 0.3734(6) 0.6867(3) 0.73678(17)
C2_18 C 0.3720(6) 0.7199(3) 0.75655(17)
H2_18 H 0.3708 0.7146 0.7757
N2_18 N 0.3726(7) 0.7622(3) 0.74410(17)
N4_18 N 0.5444(4) 0.6466(4) 0.7987(2)
N5_10 N 0.5506(5) 0.5995(4) 0.7966(2)
C3_18 C 0.4971(5) 0.5831(3) 0.7825(3)
H3_18 H 0.4886 0.5516 0.7781
N6_18 N 0.4579(5) 0.6202(4) 0.7760(2)
C4_18 C 0.4872(5) 0.6594(4) 0.7860(2)
H4_18 H 0.4707 0.6901 0.7844
N7_18 N 0.5449(5) 0.6472(4) 0.9486(2)
N8_10 N 0.5502(5) 0.5996(4) 0.9502(2)
C5_18 C 0.4967(5) 0.5833(3) 0.9645(2)
H5_18 H 0.4878 0.5517 0.9687
N9_10 N 0.4583(5) 0.6207(4) 0.9718(2)
C6_18 C 0.4881(5) 0.6602(3) 0.9620(3)
H6_18 H 0.4723 0.6910 0.9640
N10_18 N 0.6322(12) 0.7022(8) 0.8497(5)
C7_18 C 0.6005(14) 0.6836(9) 0.8723(6)
H7_18 H 0.5641 0.6629 0.8720
N11_18 N 0.6313(14) 0.7006(9) 0.8956(5)
C8_18 C 0.6822(12) 0.7296(8) 0.8873(5)
H8_18 H 0.7114 0.7460 0.8990
N12_18 N 0.6827(11) 0.7306(8) 0.8590(5)
Zn1_10 Zn 0.61915(10) 0.69025(5) 0.93578(3)
C9_18 C 0.6074(11) 0.7797(8) 0.9712(5)
H9_18 H 0.5662 0.7714 0.9790
N13_18 N 0.6422(11) 0.7542(7) 0.9533(5)
N14_18 N 0.6975(11) 0.7777(8) 0.9471(5)
C10_18 C 0.6969(11) 0.8178(8) 0.9612(5)
H10_18 H 0.7299 0.8411 0.9608
N17_10 N 0.6994(5) 0.6505(4) 0.7966(2)
N18_10 N 0.6998(5) 0.6504(4) 0.9502(2)
N19_10 N 0.2917(5) 0.6207(4) 0.7782(2)
Zn4_10 Zn 0.63085(10) 0.55975(5) 0.93578(3)
C1_19 C 0.3751(6) 0.7084(3) 0.03792(16)
H1_19 H 0.3740 0.6937 0.0552
N1_19 N 0.3766(6) 0.6867(3) 0.01322(17)
N2_19 N 0.3774(7) 0.7622(3) 0.00590(17)
C2_19 C 0.3780(6) 0.7199(3) 0.99345(17)
H2_19 H 0.3792 0.7146 0.9743
N4_19 N 0.2056(4) 0.6466(4) 0.9513(2)
N5_11 N 0.1994(5) 0.5995(4) 0.9534(2)
C3_19 C 0.2529(5) 0.5831(3) 0.9675(3)
H3_19 H 0.2614 0.5516 0.9719
N6_19 N 0.2921(5) 0.6202(4) 0.9740(2)
C4_19 C 0.2628(5) 0.6594(4) 0.9640(2)
H4_19 H 0.2793 0.6901 0.9656
N7_19 N 0.2051(5) 0.6472(4) 0.8014(2)
N8_11 N 0.1998(5) 0.5996(4) 0.7998(2)
C5_19 C 0.2533(5) 0.5833(3) 0.7855(2)
H5_19 H 0.2622 0.5517 0.7813
C6_19 C 0.2619(5) 0.6602(3) 0.7880(3)
H6_19 H 0.2777 0.6910 0.7860
N10_19 N 0.1178(12) 0.7022(8) 0.9003(5)
C7_19 C 0.1495(14) 0.6836(9) 0.8777(6)
H7_19 H 0.1859 0.6629 0.8780
N11_19 N 0.1187(14) 0.7006(9) 0.8544(5)
C8_19 C 0.0678(12) 0.7296(8) 0.8627(5)
H8_19 H 0.0386 0.7460 0.8510
N12_19 N 0.0673(11) 0.7306(8) 0.8910(5)
Zn1_11 Zn 0.13085(10) 0.69025(5) 0.81422(3)
C9_19 C 0.1426(11) 0.7797(8) 0.7788(5)
H9_19 H 0.1838 0.7714 0.7710
N13_19 N 0.1078(11) 0.7542(7) 0.7967(5)
N14_19 N 0.0525(11) 0.7777(8) 0.8029(5)
C10_19 C 0.0531(11) 0.8178(8) 0.7888(5)
H10_19 H 0.0201 0.8411 0.7892
N17_11 N 0.0506(5) 0.6505(4) 0.9534(2)
N18_11 N 0.0502(5) 0.6504(4) 0.7998(2)
Zn4_11 Zn 0.11915(10) 0.55975(5) 0.81422(3)
C1_20 C 0.3749(6) 0.0416(3) 0.03792(16)
H1_20 H 0.3760 0.0563 0.0552
N1_20 N 0.3734(6) 0.0633(3) 0.01322(17)
C2_20 C 0.3720(6) 0.0301(3) 0.99345(17)
H2_20 H 0.3708 0.0354 0.9743
N4_20 N 0.5444(4) 0.1034(4) 0.9513(2)
N5_12 N 0.5506(5) 0.1505(4) 0.9534(2)
C3_20 C 0.4971(5) 0.1669(3) 0.9675(3)
H3_20 H 0.4886 0.1984 0.9719
N6_20 N 0.4579(5) 0.1298(4) 0.9740(2)
C4_20 C 0.4872(5) 0.0906(4) 0.9640(2)
H4_20 H 0.4707 0.0599 0.9656
N7_20 N 0.5449(5) 0.1028(4) 0.8014(2)
N8_12 N 0.5502(5) 0.1504(4) 0.7998(2)
C5_20 C 0.4967(5) 0.1667(3) 0.7855(2)
H5_20 H 0.4878 0.1983 0.7813
C6_20 C 0.4881(5) 0.0898(3) 0.7880(3)
H6_20 H 0.4723 0.0590 0.7860
N10_20 N 0.6322(12) 0.0478(8) 0.9003(5)
C7_20 C 0.6005(14) 0.0664(9) 0.8777(6)
H7_20 H 0.5641 0.0871 0.8780
N11_20 N 0.6313(14) 0.0494(9) 0.8544(5)
C8_20 C 0.6822(12) 0.0204(8) 0.8627(5)
H8_20 H 0.7114 0.0040 0.8510
N12_20 N 0.6827(11) 0.0194(8) 0.8910(5)
Zn1_12 Zn 0.61915(10) 0.05975(5) 0.81422(3)
N17_12 N 0.6994(5) 0.0995(4) 0.9534(2)
N18_12 N 0.6998(5) 0.0996(4) 0.7998(2)
Zn4_12 Zn 0.63085(10) 0.19025(5) 0.81422(3)
N2_20 N 0.3726(7) 0.9878(3) 0.00590(17)
C9_20 C 0.6074(11) 0.9703(8) 0.7788(5)
H9_20 H 0.5662 0.9786 0.7710
N13_20 N 0.6422(11) 0.9958(7) 0.7967(5)
N14_20 N 0.6975(11) 0.9723(8) 0.8029(5)
C10_20 C 0.6969(11) 0.9322(8) 0.7888(5)
H10_20 H 0.7299 0.9089 0.7892
C1_21 C 0.3751(6) 0.5416(3) 0.21208(16)
H1_21 H 0.3740 0.5563 0.1948
N1_21 N 0.3766(6) 0.5633(3) 0.23678(17)
C2_21 C 0.3780(6) 0.5301(3) 0.25655(17)
H2_21 H 0.3792 0.5354 0.2757
N2_21 N 0.3774(7) 0.4878(3) 0.24410(17)
N4_21 N 0.2056(4) 0.6034(4) 0.2987(2)
N5_13 N 0.1994(5) 0.6505(4) 0.2966(2)
C3_21 C 0.2529(5) 0.6669(3) 0.2825(3)
H3_21 H 0.2614 0.6984 0.2781
N6_21 N 0.2921(5) 0.6298(4) 0.2760(2)
C4_21 C 0.2628(5) 0.5906(4) 0.2860(2)
H4_21 H 0.2793 0.5599 0.2844
N7_21 N 0.2051(5) 0.6028(4) 0.4486(2)
N8_13 N 0.1998(5) 0.6504(4) 0.4502(2)
C5_21 C 0.2533(5) 0.6667(3) 0.4645(2)
H5_21 H 0.2622 0.6983 0.4687
N9_11 N 0.2917(5) 0.6293(4) 0.4718(2)
C6_21 C 0.2619(5) 0.5898(3) 0.4620(3)
H6_21 H 0.2777 0.5590 0.4640
N10_21 N 0.1178(12) 0.5478(8) 0.3497(5)
C7_21 C 0.1495(14) 0.5664(9) 0.3723(6)
H7_21 H 0.1859 0.5871 0.3720
N11_21 N 0.1187(14) 0.5494(9) 0.3956(5)
C8_21 C 0.0678(12) 0.5204(8) 0.3873(5)
H8_21 H 0.0386 0.5040 0.3990
N12_21 N 0.0673(11) 0.5194(8) 0.3590(5)
Zn1_13 Zn 0.13085(10) 0.55975(5) 0.43578(3)
C9_21 C 0.1426(11) 0.4703(8) 0.4712(5)
H9_21 H 0.1838 0.4786 0.4790
N13_21 N 0.1078(11) 0.4958(7) 0.4533(5)
N14_21 N 0.0525(11) 0.4723(8) 0.4471(5)
C10_21 C 0.0531(11) 0.4322(8) 0.4612(5)
H10_21 H 0.0201 0.4089 0.4608
N17_13 N 0.0506(5) 0.5995(4) 0.2966(2)
N18_13 N 0.0502(5) 0.5996(4) 0.4502(2)
N19_11 N 0.4583(5) 0.6293(4) 0.2782(2)
Zn4_13 Zn 0.11915(10) 0.69025(5) 0.43578(3)
C1_22 C 0.3749(6) 0.2084(3) 0.21208(16)
H1_22 H 0.3760 0.1937 0.1948
N1_22 N 0.3734(6) 0.1867(3) 0.23678(17)
C2_22 C 0.3720(6) 0.2199(3) 0.25655(17)
H2_22 H 0.3708 0.2146 0.2757
N2_22 N 0.3726(7) 0.2622(3) 0.24410(17)
N4_22 N 0.5444(4) 0.1466(4) 0.2987(2)
N5_14 N 0.5506(5) 0.0995(4) 0.2966(2)
C3_22 C 0.4971(5) 0.0831(3) 0.2825(3)
H3_22 H 0.4886 0.0516 0.2781
N6_22 N 0.4579(5) 0.1202(4) 0.2760(2)
C4_22 C 0.4872(5) 0.1594(4) 0.2860(2)
H4_22 H 0.4707 0.1901 0.2844
N7_22 N 0.5449(5) 0.1472(4) 0.4486(2)
N8_14 N 0.5502(5) 0.0996(4) 0.4502(2)
C5_22 C 0.4967(5) 0.0833(3) 0.4645(2)
H5_22 H 0.4878 0.0517 0.4687
N9_12 N 0.4583(5) 0.1207(4) 0.4718(2)
C6_22 C 0.4881(5) 0.1602(3) 0.4620(3)
H6_22 H 0.4723 0.1910 0.4640
N10_22 N 0.6322(12) 0.2022(8) 0.3497(5)
C7_22 C 0.6005(14) 0.1836(9) 0.3723(6)
H7_22 H 0.5641 0.1629 0.3720
N11_22 N 0.6313(14) 0.2006(9) 0.3956(5)
C8_22 C 0.6822(12) 0.2296(8) 0.3873(5)
H8_22 H 0.7114 0.2460 0.3990
N12_22 N 0.6827(11) 0.2306(8) 0.3590(5)
Zn1_14 Zn 0.61915(10) 0.19025(5) 0.43578(3)
C9_22 C 0.6074(11) 0.2797(8) 0.4712(5)
H9_22 H 0.5662 0.2714 0.4790
N13_22 N 0.6422(11) 0.2542(7) 0.4533(5)
N14_22 N 0.6975(11) 0.2777(8) 0.4471(5)
C10_22 C 0.6969(11) 0.3178(8) 0.4612(5)
H10_22 H 0.7299 0.3411 0.4608
N17_14 N 0.6994(5) 0.1505(4) 0.2966(2)
N18_14 N 0.6998(5) 0.1504(4) 0.4502(2)
N19_12 N 0.2917(5) 0.1207(4) 0.2782(2)
Zn4_14 Zn 0.63085(10) 0.05975(5) 0.43578(3)
C1_23 C 0.3751(6) 0.2084(3) 0.53792(16)
H1_23 H 0.3740 0.1937 0.5552
N1_23 N 0.3766(6) 0.1867(3) 0.51322(17)
C2_23 C 0.3780(6) 0.2199(3) 0.49345(17)
H2_23 H 0.3792 0.2146 0.4743
N2_23 N 0.3774(7) 0.2622(3) 0.50590(17)
N4_23 N 0.2056(4) 0.1466(4) 0.4513(2)
N5_15 N 0.1994(5) 0.0995(4) 0.4534(2)
C3_23 C 0.2529(5) 0.0831(3) 0.4675(3)
H3_23 H 0.2614 0.0516 0.4719
N6_23 N 0.2921(5) 0.1202(4) 0.4740(2)
C4_23 C 0.2628(5) 0.1594(4) 0.4640(2)
H4_23 H 0.2793 0.1901 0.4656
N7_23 N 0.2051(5) 0.1472(4) 0.3014(2)
N8_15 N 0.1998(5) 0.0996(4) 0.2998(2)
C5_23 C 0.2533(5) 0.0833(3) 0.2855(2)
H5_23 H 0.2622 0.0517 0.2813
C6_23 C 0.2619(5) 0.1602(3) 0.2880(3)
H6_23 H 0.2777 0.1910 0.2860
N10_23 N 0.1178(12) 0.2022(8) 0.4003(5)
C7_23 C 0.1495(14) 0.1836(9) 0.3777(6)
H7_23 H 0.1859 0.1629 0.3780
N11_23 N 0.1187(14) 0.2006(9) 0.3544(5)
C8_23 C 0.0678(12) 0.2296(8) 0.3627(5)
H8_23 H 0.0386 0.2460 0.3510
N12_23 N 0.0673(11) 0.2306(8) 0.3910(5)
Zn1_15 Zn 0.13085(10) 0.19025(5) 0.31422(3)
C9_23 C 0.1426(11) 0.2797(8) 0.2788(5)
H9_23 H 0.1838 0.2714 0.2710
N13_23 N 0.1078(11) 0.2542(7) 0.2967(5)
N14_23 N 0.0525(11) 0.2777(8) 0.3029(5)
C10_23 C 0.0531(11) 0.3178(8) 0.2888(5)
H10_23 H 0.0201 0.3411 0.2892
N17_15 N 0.0506(5) 0.1505(4) 0.4534(2)
N18_15 N 0.0502(5) 0.1504(4) 0.2998(2)
Zn4_15 Zn 0.11915(10) 0.05975(5) 0.31422(3)
C1_24 C 0.3749(6) 0.5416(3) 0.53792(16)
H1_24 H 0.3760 0.5563 0.5552
N1_24 N 0.3734(6) 0.5633(3) 0.51322(17)
C2_24 C 0.3720(6) 0.5301(3) 0.49345(17)
H2_24 H 0.3708 0.5354 0.4743
N2_24 N 0.3726(7) 0.4878(3) 0.50590(17)
N4_24 N 0.5444(4) 0.6034(4) 0.4513(2)
N5_16 N 0.5506(5) 0.6505(4) 0.4534(2)
C3_24 C 0.4971(5) 0.6669(3) 0.4675(3)
H3_24 H 0.4886 0.6984 0.4719
N6_24 N 0.4579(5) 0.6298(4) 0.4740(2)
C4_24 C 0.4872(5) 0.5906(4) 0.4640(2)
H4_24 H 0.4707 0.5599 0.4656
N7_24 N 0.5449(5) 0.6028(4) 0.3014(2)
N8_16 N 0.5502(5) 0.6504(4) 0.2998(2)
C5_24 C 0.4967(5) 0.6667(3) 0.2855(2)
H5_24 H 0.4878 0.6983 0.2813
C6_24 C 0.4881(5) 0.5898(3) 0.2880(3)
H6_24 H 0.4723 0.5590 0.2860
N10_24 N 0.6322(12) 0.5478(8) 0.4003(5)
C7_24 C 0.6005(14) 0.5664(9) 0.3777(6)
H7_24 H 0.5641 0.5871 0.3780
N11_24 N 0.6313(14) 0.5494(9) 0.3544(5)
C8_24 C 0.6822(12) 0.5204(8) 0.3627(5)
H8_24 H 0.7114 0.5040 0.3510
N12_24 N 0.6827(11) 0.5194(8) 0.3910(5)
Zn1_16 Zn 0.61915(10) 0.55975(5) 0.31422(3)
C9_24 C 0.6074(11) 0.4703(8) 0.2788(5)
H9_24 H 0.5662 0.4786 0.2710
N13_24 N 0.6422(11) 0.4958(7) 0.2967(5)
N14_24 N 0.6975(11) 0.4723(8) 0.3029(5)
C10_24 C 0.6969(11) 0.4322(8) 0.2888(5)
H10_24 H 0.7299 0.4089 0.2892
N17_16 N 0.6994(5) 0.5995(4) 0.4534(2)
N18_16 N 0.6998(5) 0.5996(4) 0.2998(2)
Zn4_16 Zn 0.63085(10) 0.69025(5) 0.31422(3)
C1_25 C 0.8751(6) 0.0416(3) 0.21208(16)
H1_25 H 0.8740 0.0563 0.1948
N1_25 N 0.8766(6) 0.0633(3) 0.23678(17)
C2_25 C 0.8780(6) 0.0301(3) 0.25655(17)
H2_25 H 0.8792 0.0354 0.2757
N4_25 N 0.7056(4) 0.1034(4) 0.2987(2)
C3_25 C 0.7529(5) 0.1669(3) 0.2825(3)
H3_25 H 0.7614 0.1984 0.2781
N6_25 N 0.7921(5) 0.1298(4) 0.2760(2)
C4_25 C 0.7628(5) 0.0906(4) 0.2860(2)
H4_25 H 0.7793 0.0599 0.2844
N7_25 N 0.7051(5) 0.1028(4) 0.4486(2)
C5_25 C 0.7533(5) 0.1667(3) 0.4645(2)
H5_25 H 0.7622 0.1983 0.4687
N9_13 N 0.7917(5) 0.1293(4) 0.4718(2)
C6_25 C 0.7619(5) 0.0898(3) 0.4620(3)
H6_25 H 0.7777 0.0590 0.4640
N10_25 N 0.6178(12) 0.0478(8) 0.3497(5)
C7_25 C 0.6495(14) 0.0664(9) 0.3723(6)
H7_25 H 0.6859 0.0871 0.3720
N11_25 N 0.6187(14) 0.0494(9) 0.3956(5)
C8_25 C 0.5678(12) 0.0204(8) 0.3873(5)
H8_25 H 0.5386 0.0040 0.3990
N12_25 N 0.5673(11) 0.0194(8) 0.3590(5)
N19_13 N 0.9583(5) 0.1293(4) 0.2782(2)
N2_25 N 0.8774(7) 0.9878(3) 0.24410(17)
C9_25 C 0.6426(11) 0.9703(8) 0.4712(5)
H9_25 H 0.6838 0.9786 0.4790
N13_25 N 0.6078(11) 0.9958(7) 0.4533(5)
N14_25 N 0.5525(11) 0.9723(8) 0.4471(5)
C10_25 C 0.5531(11) 0.9322(8) 0.4612(5)
H10_25 H 0.5201 0.9089 0.4608
N4_26 N 0.0444(4) 0.6466(4) 0.2987(2)
N7_26 N 0.0449(5) 0.6472(4) 0.4486(2)
N10_26 N 0.1322(12) 0.7022(8) 0.3497(5)
C7_26 C 0.1005(14) 0.6836(9) 0.3723(6)
H7_26 H 0.0641 0.6629 0.3720
N11_26 N 0.1313(14) 0.7006(9) 0.3956(5)
C8_26 C 0.1822(12) 0.7296(8) 0.3873(5)
H8_26 H 0.2114 0.7460 0.3990
N12_26 N 0.1827(11) 0.7306(8) 0.3590(5)
C9_26 C 0.1074(11) 0.7797(8) 0.4712(5)
H9_26 H 0.0662 0.7714 0.4790
N13_26 N 0.1422(11) 0.7542(7) 0.4533(5)
N14_26 N 0.1975(11) 0.7777(8) 0.4471(5)
C10_26 C 0.1969(11) 0.8178(8) 0.4612(5)
H10_26 H 0.2299 0.8411 0.4608
C1_26 C 0.8749(6) 0.7084(3) 0.21208(16)
H1_26 H 0.8760 0.6937 0.1948
N1_26 N 0.8734(6) 0.6867(3) 0.23678(17)
C2_26 C 0.8720(6) 0.7199(3) 0.25655(17)
H2_26 H 0.8708 0.7146 0.2757
N2_26 N 0.8726(7) 0.7622(3) 0.24410(17)
C3_26 C 0.9971(5) 0.5831(3) 0.2825(3)
H3_26 H 0.9886 0.5516 0.2781
N6_26 N 0.9579(5) 0.6202(4) 0.2760(2)
C4_26 C 0.9872(5) 0.6594(4) 0.2860(2)
H4_26 H 0.9707 0.6901 0.2844
C5_26 C 0.9967(5) 0.5833(3) 0.4645(2)
H5_26 H 0.9878 0.5517 0.4687
N9_14 N 0.9583(5) 0.6207(4) 0.4718(2)
C6_26 C 0.9881(5) 0.6602(3) 0.4620(3)
H6_26 H 0.9723 0.6910 0.4640
N19_14 N 0.7917(5) 0.6207(4) 0.2782(2)
C1_27 C 0.8751(6) 0.7084(3) 0.53792(16)
H1_27 H 0.8740 0.6937 0.5552
N1_27 N 0.8766(6) 0.6867(3) 0.51322(17)
C2_27 C 0.8780(6) 0.7199(3) 0.49345(17)
H2_27 H 0.8792 0.7146 0.4743
N2_27 N 0.8774(7) 0.7622(3) 0.50590(17)
N4_27 N 0.7056(4) 0.6466(4) 0.4513(2)
C3_27 C 0.7529(5) 0.5831(3) 0.4675(3)
H3_27 H 0.7614 0.5516 0.4719
N6_27 N 0.7921(5) 0.6202(4) 0.4740(2)
C4_27 C 0.7628(5) 0.6594(4) 0.4640(2)
H4_27 H 0.7793 0.6901 0.4656
N7_27 N 0.7051(5) 0.6472(4) 0.3014(2)
C5_27 C 0.7533(5) 0.5833(3) 0.2855(2)
H5_27 H 0.7622 0.5517 0.2813
C6_27 C 0.7619(5) 0.6602(3) 0.2880(3)
H6_27 H 0.7777 0.6910 0.2860
N10_27 N 0.6178(12) 0.7022(8) 0.4003(5)
C7_27 C 0.6495(14) 0.6836(9) 0.3777(6)
H7_27 H 0.6859 0.6629 0.3780
N11_27 N 0.6187(14) 0.7006(9) 0.3544(5)
C8_27 C 0.5678(12) 0.7296(8) 0.3627(5)
H8_27 H 0.5386 0.7460 0.3510
N12_27 N 0.5673(11) 0.7306(8) 0.3910(5)
C9_27 C 0.6426(11) 0.7797(8) 0.2788(5)
H9_27 H 0.6838 0.7714 0.2710
N13_27 N 0.6078(11) 0.7542(7) 0.2967(5)
N14_27 N 0.5525(11) 0.7777(8) 0.3029(5)
C10_27 C 0.5531(11) 0.8178(8) 0.2888(5)
H10_27 H 0.5201 0.8411 0.2892
N4_28 N 0.0444(4) 0.1034(4) 0.4513(2)
N7_28 N 0.0449(5) 0.1028(4) 0.3014(2)
N10_28 N 0.1322(12) 0.0478(8) 0.4003(5)
C7_28 C 0.1005(14) 0.0664(9) 0.3777(6)
H7_28 H 0.0641 0.0871 0.3780
N11_28 N 0.1313(14) 0.0494(9) 0.3544(5)
C8_28 C 0.1822(12) 0.0204(8) 0.3627(5)
H8_28 H 0.2114 0.0040 0.3510
N12_28 N 0.1827(11) 0.0194(8) 0.3910(5)
C9_28 C 0.1074(11) 0.9703(8) 0.2788(5)
H9_28 H 0.0662 0.9786 0.2710
N13_28 N 0.1422(11) 0.9958(7) 0.2967(5)
N14_28 N 0.1975(11) 0.9723(8) 0.3029(5)
C10_28 C 0.1969(11) 0.9322(8) 0.2888(5)
H10_28 H 0.2299 0.9089 0.2892
C1_28 C 0.8749(6) 0.0416(3) 0.53792(16)
H1_28 H 0.8760 0.0563 0.5552
N1_28 N 0.8734(6) 0.0633(3) 0.51322(17)
C2_28 C 0.8720(6) 0.0301(3) 0.49345(17)
H2_28 H 0.8708 0.0354 0.4743
C3_28 C 0.9971(5) 0.1669(3) 0.4675(3)
H3_28 H 0.9886 0.1984 0.4719
N6_28 N 0.9579(5) 0.1298(4) 0.4740(2)
C4_28 C 0.9872(5) 0.0906(4) 0.4640(2)
H4_28 H 0.9707 0.0599 0.4656
C5_28 C 0.9967(5) 0.1667(3) 0.2855(2)
H5_28 H 0.9878 0.1983 0.2813
C6_28 C 0.9881(5) 0.0898(3) 0.2880(3)
H6_28 H 0.9723 0.0590 0.2860
N2_28 N 0.8726(7) 0.9878(3) 0.50590(17)
C1_29 C 0.8751(6) 0.5416(3) 0.71208(16)
H1_29 H 0.8740 0.5563 0.6948
N1_29 N 0.8766(6) 0.5633(3) 0.73678(17)
C2_29 C 0.8780(6) 0.5301(3) 0.75655(17)
H2_29 H 0.8792 0.5354 0.7757
N2_29 N 0.8774(7) 0.4878(3) 0.74410(17)
N4_29 N 0.7056(4) 0.6034(4) 0.7987(2)
C3_29 C 0.7529(5) 0.6669(3) 0.7825(3)
H3_29 H 0.7614 0.6984 0.7781
N6_29 N 0.7921(5) 0.6298(4) 0.7760(2)
C4_29 C 0.7628(5) 0.5906(4) 0.7860(2)
H4_29 H 0.7793 0.5599 0.7844
N7_29 N 0.7051(5) 0.6028(4) 0.9486(2)
C5_29 C 0.7533(5) 0.6667(3) 0.9645(2)
H5_29 H 0.7622 0.6983 0.9687
N9_15 N 0.7917(5) 0.6293(4) 0.9718(2)
C6_29 C 0.7619(5) 0.5898(3) 0.9620(3)
H6_29 H 0.7777 0.5590 0.9640
N10_29 N 0.6178(12) 0.5478(8) 0.8497(5)
C7_29 C 0.6495(14) 0.5664(9) 0.8723(6)
H7_29 H 0.6859 0.5871 0.8720
N11_29 N 0.6187(14) 0.5494(9) 0.8956(5)
C8_29 C 0.5678(12) 0.5204(8) 0.8873(5)
H8_29 H 0.5386 0.5040 0.8990
N12_29 N 0.5673(11) 0.5194(8) 0.8590(5)
C9_29 C 0.6426(11) 0.4703(8) 0.9712(5)
H9_29 H 0.6838 0.4786 0.9790
N13_29 N 0.6078(11) 0.4958(7) 0.9533(5)
N14_29 N 0.5525(11) 0.4723(8) 0.9471(5)
C10_29 C 0.5531(11) 0.4322(8) 0.9612(5)
H10_29 H 0.5201 0.4089 0.9608
N19_15 N 0.9583(5) 0.6293(4) 0.7782(2)
N4_30 N 0.0444(4) 0.1466(4) 0.7987(2)
N7_30 N 0.0449(5) 0.1472(4) 0.9486(2)
N10_30 N 0.1322(12) 0.2022(8) 0.8497(5)
C7_30 C 0.1005(14) 0.1836(9) 0.8723(6)
H7_30 H 0.0641 0.1629 0.8720
N11_30 N 0.1313(14) 0.2006(9) 0.8956(5)
C8_30 C 0.1822(12) 0.2296(8) 0.8873(5)
H8_30 H 0.2114 0.2460 0.8990
N12_30 N 0.1827(11) 0.2306(8) 0.8590(5)
C9_30 C 0.1074(11) 0.2797(8) 0.9712(5)
H9_30 H 0.0662 0.2714 0.9790
N13_30 N 0.1422(11) 0.2542(7) 0.9533(5)
N14_30 N 0.1975(11) 0.2777(8) 0.9471(5)
C10_30 C 0.1969(11) 0.3178(8) 0.9612(5)
H10_30 H 0.2299 0.3411 0.9608
C1_30 C 0.8749(6) 0.2084(3) 0.71208(16)
H1_30 H 0.8760 0.1937 0.6948
N1_30 N 0.8734(6) 0.1867(3) 0.73678(17)
C2_30 C 0.8720(6) 0.2199(3) 0.75655(17)
H2_30 H 0.8708 0.2146 0.7757
N2_30 N 0.8726(7) 0.2622(3) 0.74410(17)
C3_30 C 0.9971(5) 0.0831(3) 0.7825(3)
H3_30 H 0.9886 0.0516 0.7781
N6_30 N 0.9579(5) 0.1202(4) 0.7760(2)
C4_30 C 0.9872(5) 0.1594(4) 0.7860(2)
H4_30 H 0.9707 0.1901 0.7844
C5_30 C 0.9967(5) 0.0833(3) 0.9645(2)
H5_30 H 0.9878 0.0517 0.9687
N9_16 N 0.9583(5) 0.1207(4) 0.9718(2)
C6_30 C 0.9881(5) 0.1602(3) 0.9620(3)
H6_30 H 0.9723 0.1910 0.9640
N19_16 N 0.7917(5) 0.1207(4) 0.7782(2)
C1_31 C 0.8751(6) 0.2084(3) 0.03792(16)
H1_31 H 0.8740 0.1937 0.0552
N1_31 N 0.8766(6) 0.1867(3) 0.01322(17)
N2_31 N 0.8774(7) 0.2622(3) 0.00590(17)
C2_31 C 0.8780(6) 0.2199(3) 0.99345(17)
H2_31 H 0.8792 0.2146 0.9743
N4_31 N 0.7056(4) 0.1466(4) 0.9513(2)
C3_31 C 0.7529(5) 0.0831(3) 0.9675(3)
H3_31 H 0.7614 0.0516 0.9719
N6_31 N 0.7921(5) 0.1202(4) 0.9740(2)
C4_31 C 0.7628(5) 0.1594(4) 0.9640(2)
H4_31 H 0.7793 0.1901 0.9656
N7_31 N 0.7051(5) 0.1472(4) 0.8014(2)
C5_31 C 0.7533(5) 0.0833(3) 0.7855(2)
H5_31 H 0.7622 0.0517 0.7813
C6_31 C 0.7619(5) 0.1602(3) 0.7880(3)
H6_31 H 0.7777 0.1910 0.7860
N10_31 N 0.6178(12) 0.2022(8) 0.9003(5)
C7_31 C 0.6495(14) 0.1836(9) 0.8777(6)
H7_31 H 0.6859 0.1629 0.8780
N11_31 N 0.6187(14) 0.2006(9) 0.8544(5)
C8_31 C 0.5678(12) 0.2296(8) 0.8627(5)
H8_31 H 0.5386 0.2460 0.8510
N12_31 N 0.5673(11) 0.2306(8) 0.8910(5)
C9_31 C 0.6426(11) 0.2797(8) 0.7788(5)
H9_31 H 0.6838 0.2714 0.7710
N13_31 N 0.6078(11) 0.2542(7) 0.7967(5)
N14_31 N 0.5525(11) 0.2777(8) 0.8029(5)
C10_31 C 0.5531(11) 0.3178(8) 0.7888(5)
H10_31 H 0.5201 0.3411 0.7892
N4_32 N 0.0444(4) 0.6034(4) 0.9513(2)
N7_32 N 0.0449(5) 0.6028(4) 0.8014(2)
N10_32 N 0.1322(12) 0.5478(8) 0.9003(5)
C7_32 C 0.1005(14) 0.5664(9) 0.8777(6)
H7_32 H 0.0641 0.5871 0.8780
N11_32 N 0.1313(14) 0.5494(9) 0.8544(5)
C8_32 C 0.1822(12) 0.5204(8) 0.8627(5)
H8_32 H 0.2114 0.5040 0.8510
N12_32 N 0.1827(11) 0.5194(8) 0.8910(5)
C9_32 C 0.1074(11) 0.4703(8) 0.7788(5)
H9_32 H 0.0662 0.4786 0.7710
N13_32 N 0.1422(11) 0.4958(7) 0.7967(5)
N14_32 N 0.1975(11) 0.4723(8) 0.8029(5)
C10_32 C 0.1969(11) 0.4322(8) 0.7888(5)
H10_32 H 0.2299 0.4089 0.7892
C1_32 C 0.8749(6) 0.5416(3) 0.03792(16)
H1_32 H 0.8760 0.5563 0.0552
N1_32 N 0.8734(6) 0.5633(3) 0.01322(17)
N2_32 N 0.8726(7) 0.4878(3) 0.00590(17)
C2_32 C 0.8720(6) 0.5301(3) 0.99345(17)
H2_32 H 0.8708 0.5354 0.9743
C3_32 C 0.9971(5) 0.6669(3) 0.9675(3)
H3_32 H 0.9886 0.6984 0.9719
N6_32 N 0.9579(5) 0.6298(4) 0.9740(2)
C4_32 C 0.9872(5) 0.5906(4) 0.9640(2)
H4_32 H 0.9707 0.5599 0.9656
C5_32 C 0.9967(5) 0.6667(3) 0.7855(2)
H5_32 H 0.9878 0.6983 0.7813
C6_32 C 0.9881(5) 0.5898(3) 0.7880(3)
H6_32 H 0.9723 0.5590 0.7860
loop_
_geom_bond_atom_site_label_1
_geom_bond_atom_site_label_2
_geom_bond_site_symmetry_1
_geom_bond_site_symmetry_2
C9 H9 1_555 1_555
N14 N13 1_555 1_555
C10 N14 1_555 1_555
H10 C10 1_555 1_555
N15 C9 1_555 1_555
Zn6 N3 1_555 1_555
N2 N3 1_555 1_555
C9 N13 1_555 1_555
C10 N15 1_555 1_555
C1 H1 1_555 1_555
N1 C1 1_555 1_555
C2 N1 1_555 1_555
H2 C2 1_555 1_555
N4 N5 1_555 1_555
N5 C3 1_555 1_555
C3 H3 1_555 1_555
N6 C3 1_555 1_555
C4 N4 1_555 1_555
H4 C4 1_555 1_555
N7 N8 1_555 1_555
N8 C5 1_555 1_555
C5 H5 1_555 1_555
N9 C5 1_555 1_555
C6 N7 1_555 1_555
H6 C6 1_555 1_555
N10 C7 1_555 1_555
C7 H7 1_555 1_555
N11 C7 1_555 1_555
C8 N11 1_555 1_555
H8 C8 1_555 1_555
N12 N10 1_555 1_555
Zn1 N7 1_555 1_555
Zn2 N4 1_555 1_555
Zn3 N1 1_555 1_555
N16 Zn2 1_555 1_555
N17 Zn2 1_555 1_555
N18 Zn1 1_555 1_555
N19 Zn3 1_555 1_555
Zn4 N8 1_555 1_555
Zn5 N5 1_555 1_555
Zn7 N9 1_555 1_555
N20 Zn3 1_555 1_555
N6 C4 1_555 1_555
N6 Zn3 1_555 1_555
N9 C6 1_555 1_555
N10 Zn2 1_555 1_555
N11 Zn1 1_555 1_555
C8 N12 1_555 1_555
C1_2 H1_2 1_555 1_555
N1_2 C1_2 1_555 1_555
C2_2 N1_2 1_555 1_555
H2_2 C2_2 1_555 1_555
N2_2 C2_2 1_555 1_555
N3_2 C1_2 1_555 1_555
N4_2 N5_2 1_555 1_555
N5_2 C3_2 1_555 1_555
C3_2 H3_2 1_555 1_555
N6_2 C3_2 1_555 1_555
C4_2 N4_2 1_555 1_555
H4_2 C4_2 1_555 1_555
N7_2 N8_2 1_555 1_555
N8_2 C5_2 1_555 1_555
C5_2 H5_2 1_555 1_555
N9_2 C5_2 1_555 1_555
C6_2 N7_2 1_555 1_555
H6_2 C6_2 1_555 1_555
N10_2 C7_2 1_555 1_555
C7_2 H7_2 1_555 1_555
N11_2 C7_2 1_555 1_555
C8_2 N11_2 1_555 1_555
H8_2 C8_2 1_555 1_555
N12_2 N10_2 1_555 1_555
Zn1_2 N7_2 1_555 1_555
Zn2_2 N4_2 1_555 1_555
Zn3_2 N1_2 1_555 1_555
C9_2 H9_2 1_555 1_555
N13_2 Zn1_2 1_555 1_555
N14_2 N13_2 1_555 1_555
C10_2 N14_2 1_555 1_555
H10_2 C10_2 1_555 1_555
N15_2 C9_2 1_555 1_555
N16_2 Zn2_2 1_555 1_555
N17_2 Zn2_2 1_555 1_555
N18_2 Zn1_2 1_555 1_555
N19_2 Zn3_2 1_555 1_555
Zn4_2 N8_2 1_555 1_555
Zn5_2 N5_2 1_555 1_555
Zn6_2 N3_2 1_555 1_555
Zn7_2 N9_2 1_555 1_555
N20_2 Zn3_2 1_555 1_555
N2_2 N3_2 1_555 1_555
N6_2 C4_2 1_555 1_555
N6_2 Zn3_2 1_555 1_555
N9_2 C6_2 1_555 1_555
N10_2 Zn2_2 1_555 1_555
N11_2 Zn1_2 1_555 1_555
C8_2 N12_2 1_555 1_555
C9_2 N13_2 1_555 1_555
C10_2 N15_2 1_555 1_555
H2_3 C2_3 1_555 1_555
N4_3 N5_3 1_555 1_555
N5_3 C3_3 1_555 1_555
C3_3 H3_3 1_555 1_555
N6_3 C3_3 1_555 1_555
C4_3 N4_3 1_555 1_555
H4_3 C4_3 1_555 1_555
N7_3 N8_3 1_555 1_555
N8_3 C5_3 1_555 1_555
C5_3 H5_3 1_555 1_555
N19_2 C5_3 1_555 1_555
C6_3 N7_3 1_555 1_555
H6_3 C6_3 1_555 1_555
N10_3 C7_3 1_555 1_555
C7_3 H7_3 1_555 1_555
N11_3 C7_3 1_555 1_555
C8_3 N11_3 1_555 1_555
H8_3 C8_3 1_555 1_555
N12_3 N10_3 1_555 1_555
Zn1_3 N7_3 1_555 1_555
Zn2_3 N4_3 1_555 1_555
C9_3 H9_3 1_555 1_555
N13_3 Zn1_3 1_555 1_555
N14_3 N13_3 1_555 1_555
C10_3 N14_3 1_555 1_555
H10_3 C10_3 1_555 1_555
N15_3 C9_3 1_555 1_555
N16_3 Zn2_3 1_555 1_555
N17_3 Zn2_3 1_555 1_555
N18_3 Zn1_3 1_555 1_555
Zn4_3 N8_3 1_555 1_555
Zn5_3 N5_3 1_555 1_555
Zn8_3 N15_3 1_555 1_555
N6_3 C4_3 1_555 1_555
N6_3 Zn7_2 1_555 1_555
N19_2 C6_3 1_555 1_555
N10_3 Zn2_3 1_555 1_555
N11_3 Zn1_3 1_555 1_555
C8_3 N12_3 1_555 1_555
C9_3 N13_3 1_555 1_555
C10_3 N15_3 1_555 1_555
C1_3 H1_3 1_555 1_555
N1_3 C1_3 1_555 1_555
N3_3 C1_3 1_555 1_555
Zn6_3 N3_3 1_555 1_555
N2_3 N3_3 1_555 1_555
C9_4 H9_4 1_555 1_555
N14_4 N13_4 1_555 1_555
C10_4 N14_4 1_555 1_555
H10_4 C10_4 1_555 1_555
N15_4 C9_4 1_555 1_555
Zn8_4 N15_4 1_555 1_555
C9_4 N13_4 1_555 1_555
C10_4 N15_4 1_555 1_555
Zn6_4 N3_4 1_555 1_555
N2_4 N3_4 1_555 1_555
H2_4 C2_4 1_555 1_555
N4_4 N5_4 1_555 1_555
N5_4 C3_4 1_555 1_555
C3_4 H3_4 1_555 1_555
N6_4 C3_4 1_555 1_555
C4_4 N4_4 1_555 1_555
H4_4 C4_4 1_555 1_555
N7_4 N8_4 1_555 1_555
N8_4 C5_4 1_555 1_555
C5_4 H5_4 1_555 1_555
N19 C5_4 1_555 1_555
C6_4 N7_4 1_555 1_555
H6_4 C6_4 1_555 1_555
N10_4 C7_4 1_555 1_555
C7_4 H7_4 1_555 1_555
N11_4 C7_4 1_555 1_555
C8_4 N11_4 1_555 1_555
H8_4 C8_4 1_555 1_555
N12_4 N10_4 1_555 1_555
Zn1_4 N7_4 1_555 1_555
Zn2_4 N4_4 1_555 1_555
N16_4 Zn2_4 1_555 1_555
N17_4 Zn2_4 1_555 1_555
N18_4 Zn1_4 1_555 1_555
Zn4_4 N8_4 1_555 1_555
Zn5_4 N5_4 1_555 1_555
N6_4 C4_4 1_555 1_555
N6_4 Zn7 1_555 1_555
N19 C6_4 1_555 1_555
N10_4 Zn2_4 1_555 1_555
N11_4 Zn1_4 1_555 1_555
C8_4 N12_4 1_555 1_555
C1_4 H1_4 1_555 1_555
N1_4 C1_4 1_555 1_555
C1_5 H1_5 1_555 1_555
N1_5 C1_5 1_555 1_555
C2_5 N1_5 1_555 1_555
H2_5 C2_5 1_555 1_555
N2_5 C2_5 1_555 1_555
N3_5 C1_5 1_555 1_555
N4_5 N5_5 1_555 1_555
N5_5 C3_5 1_555 1_555
C3_5 H3_5 1_555 1_555
N6_5 C3_5 1_555 1_555
C4_5 N4_5 1_555 1_555
H4_5 C4_5 1_555 1_555
N7_5 N8_5 1_555 1_555
N8_5 C5_5 1_555 1_555
C5_5 H5_5 1_555 1_555
N9_3 C5_5 1_555 1_555
C6_5 N7_5 1_555 1_555
H6_5 C6_5 1_555 1_555
N10_5 C7_5 1_555 1_555
C7_5 H7_5 1_555 1_555
N11_5 C7_5 1_555 1_555
C8_5 N11_5 1_555 1_555
H8_5 C8_5 1_555 1_555
N12_5 N10_5 1_555 1_555
Zn1_5 N7_5 1_555 1_555
Zn2_5 N4_5 1_555 1_555
Zn3_3 N1_5 1_555 1_555
C9_5 H9_5 1_555 1_555
N13_5 Zn1_5 1_555 1_555
N14_5 N13_5 1_555 1_555
C10_5 N14_5 1_555 1_555
H10_5 C10_5 1_555 1_555
N15_5 C9_5 1_555 1_555
N16_5 Zn2_5 1_555 1_555
N17_5 Zn2_5 1_555 1_555
N18_5 Zn1_5 1_555 1_555
N19_3 Zn3_3 1_555 1_555
Zn4_5 N8_5 1_555 1_555
Zn5_5 N5_5 1_555 1_555
Zn6_5 N3_5 1_555 1_555
Zn7_3 N9_3 1_555 1_555
Zn8_5 N15_5 1_555 1_555
N20_5 Zn3_3 1_555 1_555
N2_5 N3_5 1_555 1_555
N6_5 C4_5 1_555 1_555
N6_5 Zn3_3 1_555 1_555
N9_3 C6_5 1_555 1_555
N10_5 Zn2_5 1_555 1_555
N11_5 Zn1_5 1_555 1_555
C8_5 N12_5 1_555 1_555
C9_5 N13_5 1_555 1_555
C10_5 N15_5 1_555 1_555
C1_6 H1_6 1_555 1_555
N1_6 C1_6 1_555 1_555
C2_6 N1_6 1_555 1_555
H2_6 C2_6 1_555 1_555
N2_6 C2_6 1_555 1_555
N3_6 C1_6 1_555 1_555
N4_6 N5_6 1_555 1_555
N5_6 C3_6 1_555 1_555
C3_6 H3_6 1_555 1_555
N6_6 C3_6 1_555 1_555
C4_6 N4_6 1_555 1_555
H4_6 C4_6 1_555 1_555
N7_6 N8_6 1_555 1_555
N8_6 C5_6 1_555 1_555
C5_6 H5_6 1_555 1_555
N9_4 C5_6 1_555 1_555
C6_6 N7_6 1_555 1_555
H6_6 C6_6 1_555 1_555
N10_6 C7_6 1_555 1_555
C7_6 H7_6 1_555 1_555
N11_6 C7_6 1_555 1_555
C8_6 N11_6 1_555 1_555
H8_6 C8_6 1_555 1_555
N12_6 N10_6 1_555 1_555
Zn1_6 N7_6 1_555 1_555
Zn2_6 N4_6 1_555 1_555
Zn3_4 N1_6 1_555 1_555
C9_6 H9_6 1_555 1_555
N13_6 Zn1_6 1_555 1_555
N14_6 N13_6 1_555 1_555
C10_6 N14_6 1_555 1_555
H10_6 C10_6 1_555 1_555
N15_6 C9_6 1_555 1_555
N16_6 Zn2_6 1_555 1_555
N17_6 Zn2_6 1_555 1_555
N18_6 Zn1_6 1_555 1_555
N19_4 Zn3_4 1_555 1_555
Zn4_6 N8_6 1_555 1_555
Zn5_6 N5_6 1_555 1_555
Zn6_6 N3_6 1_555 1_555
Zn7_4 N9_4 1_555 1_555
Zn8_6 N15_6 1_555 1_555
N20_6 Zn3_4 1_555 1_555
N2_6 N3_6 1_555 1_555
N6_6 C4_6 1_555 1_555
N6_6 Zn3_4 1_555 1_555
N9_4 C6_6 1_555 1_555
N10_6 Zn2_6 1_555 1_555
N11_6 Zn1_6 1_555 1_555
C8_6 N12_6 1_555 1_555
C9_6 N13_6 1_555 1_555
C10_6 N15_6 1_555 1_555
C1_7 H1_7 1_555 1_555
N1_7 C1_7 1_555 1_555
C2_7 N1_7 1_555 1_555
H2_7 C2_7 1_555 1_555
N2_7 C2_7 1_555 1_555
N3_7 C1_7 1_555 1_555
N4_7 N5_7 1_555 1_555
N5_7 C3_7 1_555 1_555
C3_7 H3_7 1_555 1_555
N6_7 C3_7 1_555 1_555
C4_7 N4_7 1_555 1_555
H4_7 C4_7 1_555 1_555
N7_7 N8_7 1_555 1_555
N8_7 C5_7 1_555 1_555
C5_7 H5_7 1_555 1_555
N19_4 C5_7 1_555 1_555
C6_7 N7_7 1_555 1_555
H6_7 C6_7 1_555 1_555
N10_7 C7_7 1_555 1_555
C7_7 H7_7 1_555 1_555
N11_7 C7_7 1_555 1_555
C8_7 N11_7 1_555 1_555
H8_7 C8_7 1_555 1_555
N12_7 N10_7 1_555 1_555
Zn1_7 N7_7 1_555 1_555
Zn2_7 N4_7 1_555 1_555
Zn7_4 N1_7 1_555 1_555
C9_7 H9_7 1_555 1_555
N13_7 Zn1_7 1_555 1_555
N14_7 N13_7 1_555 1_555
C10_7 N14_7 1_555 1_555
H10_7 C10_7 1_555 1_555
N15_7 C9_7 1_555 1_555
N16_7 Zn2_7 1_555 1_555
N17_7 Zn2_7 1_555 1_555
N18_7 Zn1_7 1_555 1_555
Zn4_7 N8_7 1_555 1_555
Zn5_7 N5_7 1_555 1_555
Zn6_7 N3_7 1_555 1_555
Zn8_7 N15_7 1_555 1_555
N20_7 Zn7_4 1_555 1_555
N2_7 N3_7 1_555 1_555
N6_7 C4_7 1_555 1_555
N6_7 Zn7_4 1_555 1_555
N19_4 C6_7 1_555 1_555
N10_7 Zn2_7 1_555 1_555
N11_7 Zn1_7 1_555 1_555
C8_7 N12_7 1_555 1_555
C9_7 N13_7 1_555 1_555
C10_7 N15_7 1_555 1_555
C1_8 H1_8 1_555 1_555
N1_8 C1_8 1_555 1_555
C2_8 N1_8 1_555 1_555
H2_8 C2_8 1_555 1_555
N2_8 C2_8 1_555 1_555
N3_8 C1_8 1_555 1_555
N4_8 N5_8 1_555 1_555
N5_8 C3_8 1_555 1_555
C3_8 H3_8 1_555 1_555
N6_8 C3_8 1_555 1_555
C4_8 N4_8 1_555 1_555
H4_8 C4_8 1_555 1_555
N7_8 N8_8 1_555 1_555
N8_8 C5_8 1_555 1_555
C5_8 H5_8 1_555 1_555
N19_3 C5_8 1_555 1_555
C6_8 N7_8 1_555 1_555
H6_8 C6_8 1_555 1_555
N10_8 C7_8 1_555 1_555
C7_8 H7_8 1_555 1_555
N11_8 C7_8 1_555 1_555
C8_8 N11_8 1_555 1_555
H8_8 C8_8 1_555 1_555
N12_8 N10_8 1_555 1_555
Zn1_8 N7_8 1_555 1_555
Zn2_8 N4_8 1_555 1_555
Zn7_3 N1_8 1_555 1_555
C9_8 H9_8 1_555 1_555
N13_8 Zn1_8 1_555 1_555
N14_8 N13_8 1_555 1_555
C10_8 N14_8 1_555 1_555
H10_8 C10_8 1_555 1_555
N15_8 C9_8 1_555 1_555
N16_8 Zn2_8 1_555 1_555
N17_8 Zn2_8 1_555 1_555
N18_8 Zn1_8 1_555 1_555
Zn4_8 N8_8 1_555 1_555
Zn5_8 N5_8 1_555 1_555
Zn6_8 N3_8 1_555 1_555
Zn8_8 N15_8 1_555 1_555
N20_8 Zn7_3 1_555 1_555
N2_8 N3_8 1_555 1_555
N6_8 C4_8 1_555 1_555
N6_8 Zn7_3 1_555 1_555
N19_3 C6_8 1_555 1_555
N10_8 Zn2_8 1_555 1_555
N11_8 Zn1_8 1_555 1_555
C8_8 N12_8 1_555 1_555
C9_8 N13_8 1_555 1_555
C10_8 N15_8 1_555 1_555
C9_9 H9_9 1_555 1_555
N14_9 N13_9 1_555 1_555
C10_9 N14_9 1_555 1_555
H10_9 C10_9 1_555 1_555
N15_9 C9_9 1_555 1_555
Zn6_9 N3_9 1_555 1_555
Zn8_9 N15_9 1_555 1_555
N2_9 N3_9 1_555 1_555
C9_9 N13_9 1_555 1_555
C10_9 N15_9 1_555 1_555
C1_9 H1_9 1_555 1_555
N1_9 C1_9 1_555 1_555
C2_9 N1_9 1_555 1_555
H2_9 C2_9 1_555 1_555
N4_9 N17_6 1_555 1_555
N17_6 C3_9 1_555 1_555
C3_9 H3_9 1_555 1_555
N6_9 C3_9 1_555 1_555
C4_9 N4_9 1_555 1_555
H4_9 C4_9 1_555 1_555
N7_9 N18_6 1_555 1_555
N18_6 C5_9 1_555 1_555
C5_9 H5_9 1_555 1_555
N9_5 C5_9 1_555 1_555
C6_9 N7_9 1_555 1_555
H6_9 C6_9 1_555 1_555
N10_9 C7_9 1_555 1_555
C7_9 H7_9 1_555 1_555
N11_9 C7_9 1_555 1_555
C8_9 N11_9 1_555 1_555
H8_9 C8_9 1_555 1_555
N12_9 N10_9 1_555 1_555
Zn4_6 N7_9 1_555 1_555
Zn5_6 N4_9 1_555 1_555
Zn3_5 N1_9 1_555 1_555
N16_9 Zn5_6 1_555 1_555
N19_5 Zn3_5 1_555 1_555
Zn7_5 N9_5 1_555 1_555
N20_9 Zn3_5 1_555 1_555
N6_9 C4_9 1_555 1_555
N6_9 Zn3_5 1_555 1_555
N9_5 C6_9 1_555 1_555
N10_9 Zn5_6 1_555 1_555
N11_9 Zn4_6 1_555 1_555
C8_9 N12_9 1_555 1_555
C1_10 H1_10 1_555 1_555
N1_10 C1_10 1_555 1_555
C2_10 N1_10 1_555 1_555
H2_10 C2_10 1_555 1_555
N2_10 C2_10 1_555 1_555
N3_10 C1_10 1_555 1_555
C3_10 H3_10 1_555 1_555
N6_10 C3_10 1_555 1_555
H4_10 C4_10 1_555 1_555
C5_10 H5_10 1_555 1_555
N9_6 C5_10 1_555 1_555
H6_10 C6_10 1_555 1_555
Zn3_6 N1_10 1_555 1_555
N19_6 Zn3_6 1_555 1_555
Zn6_10 N3_10 1_555 1_555
Zn7_6 N9_6 1_555 1_555
N20_10 Zn3_6 1_555 1_555
N2_10 N3_10 1_555 1_555
N6_10 C4_10 1_555 1_555
N6_10 Zn3_6 1_555 1_555
N9_6 C6_10 1_555 1_555
N4_10 N17_5 1_555 1_555
N7_10 N18_5 1_555 1_555
N10_10 C7_10 1_555 1_555
C7_10 H7_10 1_555 1_555
N11_10 C7_10 1_555 1_555
C8_10 N11_10 1_555 1_555
H8_10 C8_10 1_555 1_555
N12_10 N10_10 1_555 1_555
Zn4_5 N7_10 1_555 1_555
Zn5_5 N4_10 1_555 1_555
C9_10 H9_10 1_555 1_555
N13_10 Zn4_5 1_555 1_555
N14_10 N13_10 1_555 1_555
C10_10 N14_10 1_555 1_555
H10_10 C10_10 1_555 1_555
N15_10 C9_10 1_555 1_555
N16_10 Zn5_5 1_555 1_555
Zn8_10 N15_10 1_555 1_555
N10_10 Zn5_5 1_555 1_555
N11_10 Zn4_5 1_555 1_555
C8_10 N12_10 1_555 1_555
C9_10 N13_10 1_555 1_555
C10_10 N15_10 1_555 1_555
C1_11 H1_11 1_555 1_555
N1_11 C1_11 1_555 1_555
C2_11 N1_11 1_555 1_555
H2_11 C2_11 1_555 1_555
N2_11 C2_11 1_555 1_555
N3_11 C1_11 1_555 1_555
N4_11 N17_8 1_555 1_555
N17_8 C3_11 1_555 1_555
C3_11 H3_11 1_555 1_555
N6_11 C3_11 1_555 1_555
C4_11 N4_11 1_555 1_555
H4_11 C4_11 1_555 1_555
N7_11 N18_8 1_555 1_555
N18_8 C5_11 1_555 1_555
C5_11 H5_11 1_555 1_555
N19_6 C5_11 1_555 1_555
C6_11 N7_11 1_555 1_555
H6_11 C6_11 1_555 1_555
N10_11 C7_11 1_555 1_555
C7_11 H7_11 1_555 1_555
N11_11 C7_11 1_555 1_555
C8_11 N11_11 1_555 1_555
H8_11 C8_11 1_555 1_555
N12_11 N10_11 1_555 1_555
Zn4_8 N7_11 1_555 1_555
Zn5_8 N4_11 1_555 1_555
Zn7_6 N1_11 1_555 1_555
C9_11 H9_11 1_555 1_555
N13_11 Zn4_8 1_555 1_555
N14_11 N13_11 1_555 1_555
C10_11 N14_11 1_555 1_555
H10_11 C10_11 1_555 1_555
N15_11 C9_11 1_555 1_555
N16_11 Zn5_8 1_555 1_555
Zn6_11 N3_11 1_555 1_555
Zn8_11 N15_11 1_555 1_555
N20_11 Zn7_6 1_555 1_555
N2_11 N3_11 1_555 1_555
N6_11 C4_11 1_555 1_555
N6_11 Zn7_6 1_555 1_555
N19_6 C6_11 1_555 1_555
N10_11 Zn5_8 1_555 1_555
N11_11 Zn4_8 1_555 1_555
C8_11 N12_11 1_555 1_555
C9_11 N13_11 1_555 1_555
C10_11 N15_11 1_555 1_555
Zn6_12 N3_12 1_555 1_555
N2_12 N3_12 1_555 1_555
C1_12 H1_12 1_555 1_555
N1_12 C1_12 1_555 1_555
C2_12 N1_12 1_555 1_555
H2_12 C2_12 1_555 1_555
C3_12 H3_12 1_555 1_555
N6_12 C3_12 1_555 1_555
H4_12 C4_12 1_555 1_555
C5_12 H5_12 1_555 1_555
N19_5 C5_12 1_555 1_555
H6_12 C6_12 1_555 1_555
Zn7_5 N1_12 1_555 1_555
N20_12 Zn7_5 1_555 1_555
N6_12 C4_12 1_555 1_555
N6_12 Zn7_5 1_555 1_555
N19_5 C6_12 1_555 1_555
C9_12 H9_12 1_555 1_555
N14_12 N13_12 1_555 1_555
C10_12 N14_12 1_555 1_555
H10_12 C10_12 1_555 1_555
N15_12 C9_12 1_555 1_555
Zn8_12 N15_12 1_555 1_555
C9_12 N13_12 1_555 1_555
C10_12 N15_12 1_555 1_555
N4_12 N17_7 1_555 1_555
N7_12 N18_7 1_555 1_555
N10_12 C7_12 1_555 1_555
C7_12 H7_12 1_555 1_555
N11_12 C7_12 1_555 1_555
C8_12 N11_12 1_555 1_555
H8_12 C8_12 1_555 1_555
N12_12 N10_12 1_555 1_555
Zn4_7 N7_12 1_555 1_555
Zn5_7 N4_12 1_555 1_555
N16_12 Zn5_7 1_555 1_555
N10_12 Zn5_7 1_555 1_555
N11_12 Zn4_7 1_555 1_555
C8_12 N12_12 1_555 1_555
C1_13 H1_13 1_555 1_555
N1_13 C1_13 1_555 1_555
C2_13 N1_13 1_555 1_555
H2_13 C2_13 1_555 1_555
N2_13 C2_13 1_555 1_555
N3_13 C1_13 1_555 1_555
N4_13 N17_2 1_555 1_555
N17_2 C3_13 1_555 1_555
C3_13 H3_13 1_555 1_555
N6_13 C3_13 1_555 1_555
C4_13 N4_13 1_555 1_555
H4_13 C4_13 1_555 1_555
N7_13 N18_2 1_555 1_555
N18_2 C5_13 1_555 1_555
C5_13 H5_13 1_555 1_555
N9_7 C5_13 1_555 1_555
C6_13 N7_13 1_555 1_555
H6_13 C6_13 1_555 1_555
N10_13 C7_13 1_555 1_555
C7_13 H7_13 1_555 1_555
N11_13 C7_13 1_555 1_555
C8_13 N11_13 1_555 1_555
H8_13 C8_13 1_555 1_555
N12_13 N10_13 1_555 1_555
Zn4_2 N7_13 1_555 1_555
Zn5_2 N4_13 1_555 1_555
Zn3_7 N1_13 1_555 1_555
C9_13 H9_13 1_555 1_555
N13_13 Zn4_2 1_555 1_555
N14_13 N13_13 1_555 1_555
C10_13 N14_13 1_555 1_555
H10_13 C10_13 1_555 1_555
N15_13 C9_13 1_555 1_555
N16_13 Zn5_2 1_555 1_555
N19_7 Zn3_7 1_555 1_555
Zn6_13 N3_13 1_555 1_555
Zn7_7 N9_7 1_555 1_555
N20_13 Zn3_7 1_555 1_555
N2_13 N3_13 1_555 1_555
N6_13 C4_13 1_555 1_555
N6_13 Zn3_7 1_555 1_555
N9_7 C6_13 1_555 1_555
N10_13 Zn5_2 1_555 1_555
N11_13 Zn4_2 1_555 1_555
C8_13 N12_13 1_555 1_555
C9_13 N13_13 1_555 1_555
C10_13 N15_13 1_555 1_555
C1_14 H1_14 1_555 1_555
N1_14 C1_14 1_555 1_555
C2_14 N1_14 1_555 1_555
H2_14 C2_14 1_555 1_555
N2_14 C2_14 1_555 1_555
N3_14 C1_14 1_555 1_555
C3_14 H3_14 1_555 1_555
N6_14 C3_14 1_555 1_555
H4_14 C4_14 1_555 1_555
C5_14 H5_14 1_555 1_555
N9_8 C5_14 1_555 1_555
H6_14 C6_14 1_555 1_555
Zn3_8 N1_14 1_555 1_555
N19_8 Zn3_8 1_555 1_555
Zn6_14 N3_14 1_555 1_555
Zn7_8 N9_8 1_555 1_555
N20_14 Zn3_8 1_555 1_555
N2_14 N3_14 1_555 1_555
N6_14 C4_14 1_555 1_555
N6_14 Zn3_8 1_555 1_555
N9_8 C6_14 1_555 1_555
N4_14 N17 1_555 1_555
N7_14 N18 1_555 1_555
N10_14 C7_14 1_555 1_555
C7_14 H7_14 1_555 1_555
N11_14 C7_14 1_555 1_555
C8_14 N11_14 1_555 1_555
H8_14 C8_14 1_555 1_555
N12_14 N10_14 1_555 1_555
Zn4 N7_14 1_555 1_555
Zn5 N4_14 1_555 1_555
C9_14 H9_14 1_555 1_555
N13_14 Zn4 1_555 1_555
N14_14 N13_14 1_555 1_555
C10_14 N14_14 1_555 1_555
H10_14 C10_14 1_555 1_555
N15_14 C9_14 1_555 1_555
N16_14 Zn5 1_555 1_555
N10_14 Zn5 1_555 1_555
N11_14 Zn4 1_555 1_555
C8_14 N12_14 1_555 1_555
C9_14 N13_14 1_555 1_555
C10_14 N15_14 1_555 1_555
H2_15 C2_15 1_555 1_555
N4_15 N17_4 1_555 1_555
N17_4 C3_15 1_555 1_555
C3_15 H3_15 1_555 1_555
N6_15 C3_15 1_555 1_555
C4_15 N4_15 1_555 1_555
H4_15 C4_15 1_555 1_555
N7_15 N18_4 1_555 1_555
N18_4 C5_15 1_555 1_555
C5_15 H5_15 1_555 1_555
N19_8 C5_15 1_555 1_555
C6_15 N7_15 1_555 1_555
H6_15 C6_15 1_555 1_555
N10_15 C7_15 1_555 1_555
C7_15 H7_15 1_555 1_555
N11_15 C7_15 1_555 1_555
C8_15 N11_15 1_555 1_555
H8_15 C8_15 1_555 1_555
N12_15 N10_15 1_555 1_555
Zn4_4 N7_15 1_555 1_555
Zn5_4 N4_15 1_555 1_555
C9_15 H9_15 1_555 1_555
N13_15 Zn4_4 1_555 1_555
N14_15 N13_15 1_555 1_555
C10_15 N14_15 1_555 1_555
H10_15 C10_15 1_555 1_555
N15_15 C9_15 1_555 1_555
N16_15 Zn5_4 1_555 1_555
Zn8_15 N15_15 1_555 1_555
N6_15 C4_15 1_555 1_555
N6_15 Zn7_8 1_555 1_555
N19_8 C6_15 1_555 1_555
N10_15 Zn5_4 1_555 1_555
N11_15 Zn4_4 1_555 1_555
C8_15 N12_15 1_555 1_555
C9_15 N13_15 1_555 1_555
C10_15 N15_15 1_555 1_555
C1_15 H1_15 1_555 1_555
N1_15 C1_15 1_555 1_555
N3_15 C1_15 1_555 1_555
Zn6_15 N3_15 1_555 1_555
N2_15 N3_15 1_555 1_555
H2_16 C2_16 1_555 1_555
C3_16 H3_16 1_555 1_555
N6_16 C3_16 1_555 1_555
H4_16 C4_16 1_555 1_555
C5_16 H5_16 1_555 1_555
N19_7 C5_16 1_555 1_555
H6_16 C6_16 1_555 1_555
N6_16 C4_16 1_555 1_555
N6_16 Zn7_7 1_555 1_555
N19_7 C6_16 1_555 1_555
C1_16 H1_16 1_555 1_555
N1_16 C1_16 1_555 1_555
N3_16 C1_16 1_555 1_555
Zn6_16 N3_16 1_555 1_555
N2_16 N3_16 1_555 1_555
N4_16 N17_3 1_555 1_555
N7_16 N18_3 1_555 1_555
N10_16 C7_16 1_555 1_555
C7_16 H7_16 1_555 1_555
N11_16 C7_16 1_555 1_555
C8_16 N11_16 1_555 1_555
H8_16 C8_16 1_555 1_555
N12_16 N10_16 1_555 1_555
Zn4_3 N7_16 1_555 1_555
Zn5_3 N4_16 1_555 1_555
C9_16 H9_16 1_555 1_555
N13_16 Zn4_3 1_555 1_555
N14_16 N13_16 1_555 1_555
C10_16 N14_16 1_555 1_555
H10_16 C10_16 1_555 1_555
N15_16 C9_16 1_555 1_555
N16_16 Zn5_3 1_555 1_555
Zn8_16 N15_16 1_555 1_555
N10_16 Zn5_3 1_555 1_555
N11_16 Zn4_3 1_555 1_555
C8_16 N12_16 1_555 1_555
C9_16 N13_16 1_555 1_555
C10_16 N15_16 1_555 1_555
C1_17 H1_17 1_555 1_555
N1_17 C1_17 1_555 1_555
C2_17 N1_17 1_555 1_555
H2_17 C2_17 1_555 1_555
N4_17 N5_9 1_555 1_555
N5_9 C3_17 1_555 1_555
C3_17 H3_17 1_555 1_555
N6_17 C3_17 1_555 1_555
C4_17 N4_17 1_555 1_555
H4_17 C4_17 1_555 1_555
N7_17 N8_9 1_555 1_555
N8_9 C5_17 1_555 1_555
C5_17 H5_17 1_555 1_555
N9_9 C5_17 1_555 1_555
C6_17 N7_17 1_555 1_555
H6_17 C6_17 1_555 1_555
N10_17 C7_17 1_555 1_555
C7_17 H7_17 1_555 1_555
N11_17 C7_17 1_555 1_555
C8_17 N11_17 1_555 1_555
H8_17 C8_17 1_555 1_555
N12_17 N10_17 1_555 1_555
Zn1_9 N7_17 1_555 1_555
Zn6_9 N4_17 1_555 1_555
Zn8_11 N1_17 1_555 1_555
N17_9 Zn6_9 1_555 1_555
N18_9 Zn1_9 1_555 1_555
N19_9 Zn8_11 1_555 1_555
Zn4_9 N8_9 1_555 1_555
Zn6_10 N5_9 1_555 1_555
Zn8_2 N9_9 1_555 1_555
N6_17 C4_17 1_555 1_555
N6_17 Zn8_11 1_555 1_555
N9_9 C6_17 1_555 1_555
N10_17 Zn6_9 1_555 1_555
N11_17 Zn1_9 1_555 1_555
C8_17 N12_17 1_555 1_555
C9_17 H9_17 1_555 1_555
N14_17 N13_17 1_555 1_555
C10_17 N14_17 1_555 1_555
H10_17 C10_17 1_555 1_555
N20_15 C9_17 1_555 1_555
N2_17 N16_9 1_555 1_555
C9_17 N13_17 1_555 1_555
C10_17 N20_15 1_555 1_555
C1_18 H1_18 1_555 1_555
N1_18 C1_18 1_555 1_555
C2_18 N1_18 1_555 1_555
H2_18 C2_18 1_555 1_555
N2_18 C2_18 1_555 1_555
N16_6 C1_18 1_555 1_555
N4_18 N5_10 1_555 1_555
N5_10 C3_18 1_555 1_555
C3_18 H3_18 1_555 1_555
N6_18 C3_18 1_555 1_555
C4_18 N4_18 1_555 1_555
H4_18 C4_18 1_555 1_555
N7_18 N8_10 1_555 1_555
N8_10 C5_18 1_555 1_555
C5_18 H5_18 1_555 1_555
N9_10 C5_18 1_555 1_555
C6_18 N7_18 1_555 1_555
H6_18 C6_18 1_555 1_555
N10_18 C7_18 1_555 1_555
C7_18 H7_18 1_555 1_555
N11_18 C7_18 1_555 1_555
C8_18 N11_18 1_555 1_555
H8_18 C8_18 1_555 1_555
N12_18 N10_18 1_555 1_555
Zn1_10 N7_18 1_555 1_555
Zn6_6 N4_18 1_555 1_555
Zn8_8 N1_18 1_555 1_555
C9_18 H9_18 1_555 1_555
N13_18 Zn1_10 1_555 1_555
N14_18 N13_18 1_555 1_555
C10_18 N14_18 1_555 1_555
H10_18 C10_18 1_555 1_555
N20_4 C9_18 1_555 1_555
N17_10 Zn6_6 1_555 1_555
N18_10 Zn1_10 1_555 1_555
N19_10 Zn8_8 1_555 1_555
Zn4_10 N8_10 1_555 1_555
Zn6_5 N5_10 1_555 1_555
Zn8_13 N9_10 1_555 1_555
N2_18 N16_6 1_555 1_555
N6_18 C4_18 1_555 1_555
N6_18 Zn8_8 1_555 1_555
N9_10 C6_18 1_555 1_555
N10_18 Zn6_6 1_555 1_555
N11_18 Zn1_10 1_555 1_555
C8_18 N12_18 1_555 1_555
C9_18 N13_18 1_555 1_555
C10_18 N20_4 1_555 1_555
C1_19 H1_19 1_555 1_555
N1_19 C1_19 1_555 1_555
N16_15 C1_19 1_555 1_555
N2_19 N16_15 1_555 1_555
H2_19 C2_19 1_555 1_555
N4_19 N5_11 1_555 1_555
N5_11 C3_19 1_555 1_555
C3_19 H3_19 1_555 1_555
N6_19 C3_19 1_555 1_555
C4_19 N4_19 1_555 1_555
H4_19 C4_19 1_555 1_555
N7_19 N8_11 1_555 1_555
N8_11 C5_19 1_555 1_555
C5_19 H5_19 1_555 1_555
N19_10 C5_19 1_555 1_555
C6_19 N7_19 1_555 1_555
H6_19 C6_19 1_555 1_555
N10_19 C7_19 1_555 1_555
C7_19 H7_19 1_555 1_555
N11_19 C7_19 1_555 1_555
C8_19 N11_19 1_555 1_555
H8_19 C8_19 1_555 1_555
N12_19 N10_19 1_555 1_555
Zn1_11 N7_19 1_555 1_555
Zn6_15 N4_19 1_555 1_555
C9_19 H9_19 1_555 1_555
N13_19 Zn1_11 1_555 1_555
N14_19 N13_19 1_555 1_555
C10_19 N14_19 1_555 1_555
H10_19 C10_19 1_555 1_555
N20_9 C9_19 1_555 1_555
N17_11 Zn6_15 1_555 1_555
N18_11 Zn1_11 1_555 1_555
Zn4_11 N8_11 1_555 1_555
Zn6_16 N5_11 1_555 1_555
N6_19 C4_19 1_555 1_555
N6_19 Zn8_13 1_555 1_555
N19_10 C6_19 1_555 1_555
N10_19 Zn6_15 1_555 1_555
N11_19 Zn1_11 1_555 1_555
C8_19 N12_19 1_555 1_555
C9_19 N13_19 1_555 1_555
C10_19 N20_9 1_555 1_555
C1_20 H1_20 1_555 1_555
N1_20 C1_20 1_555 1_555
H2_20 C2_20 1_555 1_555
N4_20 N5_12 1_555 1_555
N5_12 C3_20 1_555 1_555
C3_20 H3_20 1_555 1_555
N6_20 C3_20 1_555 1_555
C4_20 N4_20 1_555 1_555
H4_20 C4_20 1_555 1_555
N7_20 N8_12 1_555 1_555
N8_12 C5_20 1_555 1_555
C5_20 H5_20 1_555 1_555
N19_9 C5_20 1_555 1_555
C6_20 N7_20 1_555 1_555
H6_20 C6_20 1_555 1_555
N10_20 C7_20 1_555 1_555
C7_20 H7_20 1_555 1_555
N11_20 C7_20 1_555 1_555
C8_20 N11_20 1_555 1_555
H8_20 C8_20 1_555 1_555
N12_20 N10_20 1_555 1_555
Zn1_12 N7_20 1_555 1_555
Zn6_4 N4_20 1_555 1_555
N17_12 Zn6_4 1_555 1_555
N18_12 Zn1_12 1_555 1_555
Zn4_12 N8_12 1_555 1_555
Zn6_3 N5_12 1_555 1_555
N6_20 C4_20 1_555 1_555
N6_20 Zn8_2 1_555 1_555
N19_9 C6_20 1_555 1_555
N10_20 Zn6_4 1_555 1_555
N11_20 Zn1_12 1_555 1_555
C8_20 N12_20 1_555 1_555
N2_20 N16_4 1_555 1_555
C9_20 H9_20 1_555 1_555
N14_20 N13_20 1_555 1_555
C10_20 N14_20 1_555 1_555
H10_20 C10_20 1_555 1_555
N20_6 C9_20 1_555 1_555
C9_20 N13_20 1_555 1_555
C10_20 N20_6 1_555 1_555
C1_21 H1_21 1_555 1_555
N1_21 C1_21 1_555 1_555
C2_21 N1_21 1_555 1_555
H2_21 C2_21 1_555 1_555
N2_21 C2_21 1_555 1_555
N16_13 C1_21 1_555 1_555
N4_21 N5_13 1_555 1_555
N5_13 C3_21 1_555 1_555
C3_21 H3_21 1_555 1_555
N6_21 C3_21 1_555 1_555
C4_21 N4_21 1_555 1_555
H4_21 C4_21 1_555 1_555
N7_21 N8_13 1_555 1_555
N8_13 C5_21 1_555 1_555
C5_21 H5_21 1_555 1_555
N9_11 C5_21 1_555 1_555
C6_21 N7_21 1_555 1_555
H6_21 C6_21 1_555 1_555
N10_21 C7_21 1_555 1_555
C7_21 H7_21 1_555 1_555
N11_21 C7_21 1_555 1_555
C8_21 N11_21 1_555 1_555
H8_21 C8_21 1_555 1_555
N12_21 N10_21 1_555 1_555
Zn1_13 N7_21 1_555 1_555
Zn6_13 N4_21 1_555 1_555
Zn8_15 N1_21 1_555 1_555
C9_21 H9_21 1_555 1_555
N13_21 Zn1_13 1_555 1_555
N14_21 N13_21 1_555 1_555
C10_21 N14_21 1_555 1_555
H10_21 C10_21 1_555 1_555
N20_11 C9_21 1_555 1_555
N17_13 Zn6_13 1_555 1_555
N18_13 Zn1_13 1_555 1_555
N19_11 Zn8_15 1_555 1_555
Zn4_13 N8_13 1_555 1_555
Zn6_14 N5_13 1_555 1_555
Zn8_6 N9_11 1_555 1_555
N2_21 N16_13 1_555 1_555
N6_21 C4_21 1_555 1_555
N6_21 Zn8_15 1_555 1_555
N9_11 C6_21 1_555 1_555
N10_21 Zn6_13 1_555 1_555
N11_21 Zn1_13 1_555 1_555
C8_21 N12_21 1_555 1_555
C9_21 N13_21 1_555 1_555
C10_21 N20_11 1_555 1_555
C1_22 H1_22 1_555 1_555
N1_22 C1_22 1_555 1_555
C2_22 N1_22 1_555 1_555
H2_22 C2_22 1_555 1_555
N2_22 C2_22 1_555 1_555
N16_2 C1_22 1_555 1_555
N4_22 N5_14 1_555 1_555
N5_14 C3_22 1_555 1_555
C3_22 H3_22 1_555 1_555
N6_22 C3_22 1_555 1_555
C4_22 N4_22 1_555 1_555
H4_22 C4_22 1_555 1_555
N7_22 N8_14 1_555 1_555
N8_14 C5_22 1_555 1_555
C5_22 H5_22 1_555 1_555
N9_12 C5_22 1_555 1_555
C6_22 N7_22 1_555 1_555
H6_22 C6_22 1_555 1_555
N10_22 C7_22 1_555 1_555
C7_22 H7_22 1_555 1_555
N11_22 C7_22 1_555 1_555
C8_22 N11_22 1_555 1_555
H8_22 C8_22 1_555 1_555
N12_22 N10_22 1_555 1_555
Zn1_14 N7_22 1_555 1_555
Zn6_2 N4_22 1_555 1_555
Zn8_4 N1_22 1_555 1_555
C9_22 H9_22 1_555 1_555
N13_22 Zn1_14 1_555 1_555
N14_22 N13_22 1_555 1_555
C10_22 N14_22 1_555 1_555
H10_22 C10_22 1_555 1_555
N20_8 C9_22 1_555 1_555
N17_14 Zn6_2 1_555 1_555
N18_14 Zn1_14 1_555 1_555
N19_12 Zn8_4 1_555 1_555
Zn4_14 N8_14 1_555 1_555
Zn6 N5_14 1_555 1_555
Zn8_9 N9_12 1_555 1_555
N2_22 N16_2 1_555 1_555
N6_22 C4_22 1_555 1_555
N6_22 Zn8_4 1_555 1_555
N9_12 C6_22 1_555 1_555
N10_22 Zn6_2 1_555 1_555
N11_22 Zn1_14 1_555 1_555
C8_22 N12_22 1_555 1_555
C9_22 N13_22 1_555 1_555
C10_22 N20_8 1_555 1_555
C1_23 H1_23 1_555 1_555
N1_23 C1_23 1_555 1_555
C2_23 N1_23 1_555 1_555
H2_23 C2_23 1_555 1_555
N2_23 C2_23 1_555 1_555
N16_11 C1_23 1_555 1_555
N4_23 N5_15 1_555 1_555
N5_15 C3_23 1_555 1_555
C3_23 H3_23 1_555 1_555
N6_23 C3_23 1_555 1_555
C4_23 N4_23 1_555 1_555
H4_23 C4_23 1_555 1_555
N7_23 N8_15 1_555 1_555
N8_15 C5_23 1_555 1_555
C5_23 H5_23 1_555 1_555
N19_12 C5_23 1_555 1_555
C6_23 N7_23 1_555 1_555
H6_23 C6_23 1_555 1_555
N10_23 C7_23 1_555 1_555
C7_23 H7_23 1_555 1_555
N11_23 C7_23 1_555 1_555
C8_23 N11_23 1_555 1_555
H8_23 C8_23 1_555 1_555
N12_23 N10_23 1_555 1_555
Zn1_15 N7_23 1_555 1_555
Zn6_11 N4_23 1_555 1_555
Zn8_9 N1_23 1_555 1_555
C9_23 H9_23 1_555 1_555
N13_23 Zn1_15 1_555 1_555
N14_23 N13_23 1_555 1_555
C10_23 N14_23 1_555 1_555
H10_23 C10_23 1_555 1_555
N20_13 C9_23 1_555 1_555
N17_15 Zn6_11 1_555 1_555
N18_15 Zn1_15 1_555 1_555
Zn4_15 N8_15 1_555 1_555
Zn6_12 N5_15 1_555 1_555
N2_23 N16_11 1_555 1_555
N6_23 C4_23 1_555 1_555
N6_23 Zn8_9 1_555 1_555
N19_12 C6_23 1_555 1_555
N10_23 Zn6_11 1_555 1_555
N11_23 Zn1_15 1_555 1_555
C8_23 N12_23 1_555 1_555
C9_23 N13_23 1_555 1_555
C10_23 N20_13 1_555 1_555
C1_24 H1_24 1_555 1_555
N1_24 C1_24 1_555 1_555
C2_24 N1_24 1_555 1_555
H2_24 C2_24 1_555 1_555
N2_24 C2_24 1_555 1_555
N16_8 C1_24 1_555 1_555
N4_24 N5_16 1_555 1_555
N5_16 C3_24 1_555 1_555
C3_24 H3_24 1_555 1_555
N6_24 C3_24 1_555 1_555
C4_24 N4_24 1_555 1_555
H4_24 C4_24 1_555 1_555
N7_24 N8_16 1_555 1_555
N8_16 C5_24 1_555 1_555
C5_24 H5_24 1_555 1_555
N19_11 C5_24 1_555 1_555
C6_24 N7_24 1_555 1_555
H6_24 C6_24 1_555 1_555
N10_24 C7_24 1_555 1_555
C7_24 H7_24 1_555 1_555
N11_24 C7_24 1_555 1_555
C8_24 N11_24 1_555 1_555
H8_24 C8_24 1_555 1_555
N12_24 N10_24 1_555 1_555
Zn1_16 N7_24 1_555 1_555
Zn6_8 N4_24 1_555 1_555
Zn8_6 N1_24 1_555 1_555
C9_24 H9_24 1_555 1_555
N13_24 Zn1_16 1_555 1_555
N14_24 N13_24 1_555 1_555
C10_24 N14_24 1_555 1_555
H10_24 C10_24 1_555 1_555
N20_2 C9_24 1_555 1_555
N17_16 Zn6_8 1_555 1_555
N18_16 Zn1_16 1_555 1_555
Zn4_16 N8_16 1_555 1_555
Zn6_7 N5_16 1_555 1_555
N2_24 N16_8 1_555 1_555
N6_24 C4_24 1_555 1_555
N6_24 Zn8_6 1_555 1_555
N19_11 C6_24 1_555 1_555
N10_24 Zn6_8 1_555 1_555
N11_24 Zn1_16 1_555 1_555
C8_24 N12_24 1_555 1_555
C9_24 N13_24 1_555 1_555
C10_24 N20_2 1_555 1_555
C1_25 H1_25 1_555 1_555
N1_25 C1_25 1_555 1_555
C2_25 N1_25 1_555 1_555
H2_25 C2_25 1_555 1_555
N4_25 N17_14 1_555 1_555
N17_14 C3_25 1_555 1_555
C3_25 H3_25 1_555 1_555
N6_25 C3_25 1_555 1_555
C4_25 N4_25 1_555 1_555
H4_25 C4_25 1_555 1_555
N7_25 N18_14 1_555 1_555
N18_14 C5_25 1_555 1_555
C5_25 H5_25 1_555 1_555
N9_13 C5_25 1_555 1_555
C6_25 N7_25 1_555 1_555
H6_25 C6_25 1_555 1_555
N10_25 C7_25 1_555 1_555
C7_25 H7_25 1_555 1_555
N11_25 C7_25 1_555 1_555
C8_25 N11_25 1_555 1_555
H8_25 C8_25 1_555 1_555
N12_25 N10_25 1_555 1_555
Zn4_14 N7_25 1_555 1_555
Zn6 N4_25 1_555 1_555
Zn8_3 N1_25 1_555 1_555
N19_13 Zn8_3 1_555 1_555
Zn8_10 N9_13 1_555 1_555
N6_25 C4_25 1_555 1_555
N6_25 Zn8_3 1_555 1_555
N9_13 C6_25 1_555 1_555
N10_25 Zn6 1_555 1_555
N11_25 Zn4_14 1_555 1_555
C8_25 N12_25 1_555 1_555
C9_25 H9_25 1_555 1_555
N14_25 N13_25 1_555 1_555
C10_25 N14_25 1_555 1_555
H10_25 C10_25 1_555 1_555
N20_7 C9_25 1_555 1_555
N2_25 N16 1_555 1_555
C9_25 N13_25 1_555 1_555
C10_25 N20_7 1_555 1_555
N4_26 N17_13 1_555 1_555
N7_26 N18_13 1_555 1_555
N10_26 C7_26 1_555 1_555
C7_26 H7_26 1_555 1_555
N11_26 C7_26 1_555 1_555
C8_26 N11_26 1_555 1_555
H8_26 C8_26 1_555 1_555
N12_26 N10_26 1_555 1_555
Zn4_13 N7_26 1_555 1_555
Zn6_14 N4_26 1_555 1_555
C9_26 H9_26 1_555 1_555
N13_26 Zn4_13 1_555 1_555
N14_26 N13_26 1_555 1_555
C10_26 N14_26 1_555 1_555
H10_26 C10_26 1_555 1_555
N20_12 C9_26 1_555 1_555
N10_26 Zn6_14 1_555 1_555
N11_26 Zn4_13 1_555 1_555
C8_26 N12_26 1_555 1_555
C9_26 N13_26 1_555 1_555
C10_26 N20_12 1_555 1_555
C1_26 H1_26 1_555 1_555
N1_26 C1_26 1_555 1_555
C2_26 N1_26 1_555 1_555
H2_26 C2_26 1_555 1_555
N2_26 C2_26 1_555 1_555
N16_14 C1_26 1_555 1_555
C3_26 H3_26 1_555 1_555
N6_26 C3_26 1_555 1_555
H4_26 C4_26 1_555 1_555
C5_26 H5_26 1_555 1_555
N9_14 C5_26 1_555 1_555
H6_26 C6_26 1_555 1_555
Zn8_16 N1_26 1_555 1_555
N19_14 Zn8_16 1_555 1_555
Zn8_5 N9_14 1_555 1_555
N2_26 N16_14 1_555 1_555
N6_26 C4_26 1_555 1_555
N6_26 Zn8_16 1_555 1_555
N9_14 C6_26 1_555 1_555
C1_27 H1_27 1_555 1_555
N1_27 C1_27 1_555 1_555
C2_27 N1_27 1_555 1_555
H2_27 C2_27 1_555 1_555
N2_27 C2_27 1_555 1_555
N16_7 C1_27 1_555 1_555
N4_27 N17_16 1_555 1_555
N17_16 C3_27 1_555 1_555
C3_27 H3_27 1_555 1_555
N6_27 C3_27 1_555 1_555
C4_27 N4_27 1_555 1_555
H4_27 C4_27 1_555 1_555
N7_27 N18_16 1_555 1_555
N18_16 C5_27 1_555 1_555
C5_27 H5_27 1_555 1_555
N19_14 C5_27 1_555 1_555
C6_27 N7_27 1_555 1_555
H6_27 C6_27 1_555 1_555
N10_27 C7_27 1_555 1_555
C7_27 H7_27 1_555 1_555
N11_27 C7_27 1_555 1_555
C8_27 N11_27 1_555 1_555
H8_27 C8_27 1_555 1_555
N12_27 N10_27 1_555 1_555
Zn4_16 N7_27 1_555 1_555
Zn6_7 N4_27 1_555 1_555
Zn8_5 N1_27 1_555 1_555
C9_27 H9_27 1_555 1_555
N13_27 Zn4_16 1_555 1_555
N14_27 N13_27 1_555 1_555
C10_27 N14_27 1_555 1_555
H10_27 C10_27 1_555 1_555
N20 C9_27 1_555 1_555
N2_27 N16_7 1_555 1_555
N6_27 C4_27 1_555 1_555
N6_27 Zn8_5 1_555 1_555
N19_14 C6_27 1_555 1_555
N10_27 Zn6_7 1_555 1_555
N11_27 Zn4_16 1_555 1_555
C8_27 N12_27 1_555 1_555
C9_27 N13_27 1_555 1_555
C10_27 N20 1_555 1_555
N4_28 N17_15 1_555 1_555
N7_28 N18_15 1_555 1_555
N10_28 C7_28 1_555 1_555
C7_28 H7_28 1_555 1_555
N11_28 C7_28 1_555 1_555
C8_28 N11_28 1_555 1_555
H8_28 C8_28 1_555 1_555
N12_28 N10_28 1_555 1_555
Zn4_15 N7_28 1_555 1_555
Zn6_12 N4_28 1_555 1_555
N10_28 Zn6_12 1_555 1_555
N11_28 Zn4_15 1_555 1_555
C8_28 N12_28 1_555 1_555
C9_28 H9_28 1_555 1_555
N14_28 N13_28 1_555 1_555
C10_28 N14_28 1_555 1_555
H10_28 C10_28 1_555 1_555
N20_14 C9_28 1_555 1_555
C9_28 N13_28 1_555 1_555
C10_28 N20_14 1_555 1_555
C1_28 H1_28 1_555 1_555
N1_28 C1_28 1_555 1_555
C2_28 N1_28 1_555 1_555
H2_28 C2_28 1_555 1_555
C3_28 H3_28 1_555 1_555
N6_28 C3_28 1_555 1_555
H4_28 C4_28 1_555 1_555
C5_28 H5_28 1_555 1_555
N19_13 C5_28 1_555 1_555
H6_28 C6_28 1_555 1_555
Zn8_10 N1_28 1_555 1_555
N6_28 C4_28 1_555 1_555
N6_28 Zn8_10 1_555 1_555
N19_13 C6_28 1_555 1_555
N2_28 N16_12 1_555 1_555
C1_29 H1_29 1_555 1_555
N1_29 C1_29 1_555 1_555
C2_29 N1_29 1_555 1_555
H2_29 C2_29 1_555 1_555
N2_29 C2_29 1_555 1_555
N16_5 C1_29 1_555 1_555
N4_29 N17_10 1_555 1_555
N17_10 C3_29 1_555 1_555
C3_29 H3_29 1_555 1_555
N6_29 C3_29 1_555 1_555
C4_29 N4_29 1_555 1_555
H4_29 C4_29 1_555 1_555
N7_29 N18_10 1_555 1_555
N18_10 C5_29 1_555 1_555
C5_29 H5_29 1_555 1_555
N9_15 C5_29 1_555 1_555
C6_29 N7_29 1_555 1_555
H6_29 C6_29 1_555 1_555
N10_29 C7_29 1_555 1_555
C7_29 H7_29 1_555 1_555
N11_29 C7_29 1_555 1_555
C8_29 N11_29 1_555 1_555
H8_29 C8_29 1_555 1_555
N12_29 N10_29 1_555 1_555
Zn4_10 N7_29 1_555 1_555
Zn6_5 N4_29 1_555 1_555
Zn8_7 N1_29 1_555 1_555
C9_29 H9_29 1_555 1_555
N13_29 Zn4_10 1_555 1_555
N14_29 N13_29 1_555 1_555
C10_29 N14_29 1_555 1_555
H10_29 C10_29 1_555 1_555
N20_3 C9_29 1_555 1_555
N19_15 Zn8_7 1_555 1_555
Zn8_14 N9_15 1_555 1_555
N2_29 N16_5 1_555 1_555
N6_29 C4_29 1_555 1_555
N6_29 Zn8_7 1_555 1_555
N9_15 C6_29 1_555 1_555
N10_29 Zn6_5 1_555 1_555
N11_29 Zn4_10 1_555 1_555
C8_29 N12_29 1_555 1_555
C9_29 N13_29 1_555 1_555
C10_29 N20_3 1_555 1_555
N4_30 N17_9 1_555 1_555
N7_30 N18_9 1_555 1_555
N10_30 C7_30 1_555 1_555
C7_30 H7_30 1_555 1_555
N11_30 C7_30 1_555 1_555
C8_30 N11_30 1_555 1_555
H8_30 C8_30 1_555 1_555
N12_30 N10_30 1_555 1_555
Zn4_9 N7_30 1_555 1_555
Zn6_10 N4_30 1_555 1_555
C9_30 H9_30 1_555 1_555
N13_30 Zn4_9 1_555 1_555
N14_30 N13_30 1_555 1_555
C10_30 N14_30 1_555 1_555
H10_30 C10_30 1_555 1_555
N20_16 C9_30 1_555 1_555
N10_30 Zn6_10 1_555 1_555
N11_30 Zn4_9 1_555 1_555
C8_30 N12_30 1_555 1_555
C9_30 N13_30 1_555 1_555
C10_30 N20_16 1_555 1_555
C1_30 H1_30 1_555 1_555
N1_30 C1_30 1_555 1_555
C2_30 N1_30 1_555 1_555
H2_30 C2_30 1_555 1_555
N2_30 C2_30 1_555 1_555
N16_10 C1_30 1_555 1_555
C3_30 H3_30 1_555 1_555
N6_30 C3_30 1_555 1_555
H4_30 C4_30 1_555 1_555
C5_30 H5_30 1_555 1_555
N9_16 C5_30 1_555 1_555
H6_30 C6_30 1_555 1_555
Zn8_12 N1_30 1_555 1_555
N19_16 Zn8_12 1_555 1_555
Zn8 N9_16 1_555 1_555
N2_30 N16_10 1_555 1_555
N6_30 C4_30 1_555 1_555
N6_30 Zn8_12 1_555 1_555
N9_16 C6_30 1_555 1_555
C1_31 H1_31 1_555 1_555
N1_31 C1_31 1_555 1_555
N16_3 C1_31 1_555 1_555
N2_31 N16_3 1_555 1_555
H2_31 C2_31 1_555 1_555
N4_31 N17_12 1_555 1_555
N17_12 C3_31 1_555 1_555
C3_31 H3_31 1_555 1_555
N6_31 C3_31 1_555 1_555
C4_31 N4_31 1_555 1_555
H4_31 C4_31 1_555 1_555
N7_31 N18_12 1_555 1_555
N18_12 C5_31 1_555 1_555
C5_31 H5_31 1_555 1_555
N19_16 C5_31 1_555 1_555
C6_31 N7_31 1_555 1_555
H6_31 C6_31 1_555 1_555
N10_31 C7_31 1_555 1_555
C7_31 H7_31 1_555 1_555
N11_31 C7_31 1_555 1_555
C8_31 N11_31 1_555 1_555
H8_31 C8_31 1_555 1_555
N12_31 N10_31 1_555 1_555
Zn4_12 N7_31 1_555 1_555
Zn6_3 N4_31 1_555 1_555
C9_31 H9_31 1_555 1_555
N13_31 Zn4_12 1_555 1_555
N14_31 N13_31 1_555 1_555
C10_31 N14_31 1_555 1_555
H10_31 C10_31 1_555 1_555
N20_5 C9_31 1_555 1_555
N6_31 C4_31 1_555 1_555
N6_31 Zn8 1_555 1_555
N19_16 C6_31 1_555 1_555
N10_31 Zn6_3 1_555 1_555
N11_31 Zn4_12 1_555 1_555
C8_31 N12_31 1_555 1_555
C9_31 N13_31 1_555 1_555
C10_31 N20_5 1_555 1_555
N4_32 N17_11 1_555 1_555
N7_32 N18_11 1_555 1_555
N10_32 C7_32 1_555 1_555
C7_32 H7_32 1_555 1_555
N11_32 C7_32 1_555 1_555
C8_32 N11_32 1_555 1_555
H8_32 C8_32 1_555 1_555
N12_32 N10_32 1_555 1_555
Zn4_11 N7_32 1_555 1_555
Zn6_16 N4_32 1_555 1_555
C9_32 H9_32 1_555 1_555
N13_32 Zn4_11 1_555 1_555
N14_32 N13_32 1_555 1_555
C10_32 N14_32 1_555 1_555
H10_32 C10_32 1_555 1_555
N20_10 C9_32 1_555 1_555
N10_32 Zn6_16 1_555 1_555
N11_32 Zn4_11 1_555 1_555
C8_32 N12_32 1_555 1_555
C9_32 N13_32 1_555 1_555
C10_32 N20_10 1_555 1_555
C1_32 H1_32 1_555 1_555
N1_32 C1_32 1_555 1_555
N16_16 C1_32 1_555 1_555
N2_32 N16_16 1_555 1_555
H2_32 C2_32 1_555 1_555
C3_32 H3_32 1_555 1_555
N6_32 C3_32 1_555 1_555
H4_32 C4_32 1_555 1_555
C5_32 H5_32 1_555 1_555
N19_15 C5_32 1_555 1_555
H6_32 C6_32 1_555 1_555
N6_32 C4_32 1_555 1_555
N6_32 Zn8_14 1_555 1_555
N19_15 C6_32 1_555 1_555

#END
