
###############################################################################
#
# This file contains modified crystal structure data generated from the
# MOF subset of the Cambridge Structural Database (CSD) v543 
# hosted by the Cambridge Crystallographic Data Centre (CCDC).
#
# This work is licensed under the Creative Commons
# Attribution-NonCommercial-ShareAlike 4.0 International License.
# To view a copy of this license, visit
# http://creativecommons.org/licenses/by-nc-sa/4.0/
# or send a letter to
# Creative Commons, PO Box 1866, Mountain View, CA 94042, USA.
#
# CIF created using the CSD Python API on 29 September 2022
# The structure has been converted into the P1 space group
# The structure has a 3D framework
# The original CSD entry ZULXEL is in the monoclinic crystal system
# The framework has been calculated to contain at least 10.0% void space
# The void calculation uses a probe of radius 1.32A, grid spacing 0.4
#
###############################################################################

data_ZULXEL
_chemical_formula_moiety         '(C68 H48 Br4 Cd4 N34)n'
_symmetry_cell_setting           triclinic
_symmetry_space_group_name_H-M   'P 1'
_symmetry_Int_Tables_number      1
_space_group_name_Hall           'P 1'
loop_
_symmetry_equiv_pos_site_id
_symmetry_equiv_pos_as_xyz
1 x,y,z
_cell_length_a                   8.6364(7)
_cell_length_b                   12.6197(10)
_cell_length_c                   18.9351(16)
_cell_angle_alpha                90
_cell_angle_beta                 98.0420(10)
_cell_angle_gamma                90
_cell_volume                     2043.42
loop_
_atom_site_label
_atom_site_type_symbol
_atom_site_fract_x
_atom_site_fract_y
_atom_site_fract_z
H6 H 0.0250 0.7103 0.5860
Cd4 Cd 0.19529(4) 0.74355(2) 0.745689(16)
N10 N 0.0390(4) 0.3201(3) 0.3200(2)
N5 N 0.5390(4) 0.1799(3) 0.8200(2)
C7 C 0.9834(5) 0.1120(3) 0.9393(2)
C8 C 0.8265(5) 0.1329(3) 0.9007(2)
C9 C 0.7007(5) 0.1655(3) 0.9333(2)
H5 H 0.7106 0.1723 0.9837
C10 C 0.5606(5) 0.1879(4) 0.8911(2)
H6_2 H 0.4750 0.2103 0.9140
C11 C 0.6595(6) 0.1449(4) 0.7892(3)
H7 H 0.6456 0.1364 0.7389
C12 C 0.8034(6) 0.1204(4) 0.8273(2)
H8 H 0.8858 0.0953 0.8033
H12 H 0.9569 0.3572 0.9561
Cd4_2 Cd 0.30471(4) 0.24355(2) 0.754311(16)
Br1 Br 0.18804(7) 0.31726(4) 0.86658(3)
N1 N 0.0843(4) 0.2891(3) 0.6689(2)
N7 N 0.4273(5) 0.4076(3) 0.7409(2)
N8 N 0.3625(5) 0.4899(3) 0.7440(2)
N9 N 0.2997(5) 0.5718(3) 0.7464(2)
C3 C 0.0804(6) 0.3806(4) 0.6323(2)
H2 H 0.1666 0.4278 0.6418
N11 N 0.3994(4) 0.1981(3) 0.64464(19)
N12 N 0.2003(5) 0.0718(3) 0.7536(2)
N2 N 0.7196(4) 0.4508(3) 0.46468(19)
N3 N 0.5804(4) 0.4588(3) 0.41906(19)
N4 N 0.5532(4) 0.3341(3) 0.49810(18)
C1 C 0.8298(5) 0.3413(3) 0.5662(2)
C2 C 0.9572(5) 0.4089(4) 0.5819(2)
H1 H 0.9590 0.4748 0.5577
C4 C 0.9639(6) 0.2227(4) 0.6520(3)
H3 H 0.9660 0.1568 0.6764
C5 C 0.8364(5) 0.2442(4) 0.6009(3)
H4 H 0.7552 0.1936 0.5900
C6 C 0.7020(5) 0.3749(3) 0.5115(2)
C7_2 C 0.4834(5) 0.3880(3) 0.4393(2)
C8_2 C 0.3265(5) 0.3671(3) 0.4007(2)
C9_2 C 0.2007(5) 0.3345(3) 0.4333(2)
H5_2 H 0.2106 0.3277 0.4837
C10_2 C 0.0606(5) 0.3121(4) 0.3911(2)
C11_2 C 0.1595(6) 0.3551(4) 0.2892(3)
H7_2 H 0.1456 0.3636 0.2389
C12_2 C 0.3034(6) 0.3796(4) 0.3273(2)
H8_2 H 0.3858 0.4047 0.3033
C13 C 0.4857(5) 0.2525(3) 0.5363(2)
C14 C 0.4614(5) 0.2716(3) 0.6060(2)
H9 H 0.4894 0.3386 0.6269
C15 C 0.3587(5) 0.1049(3) 0.6134(2)
H10 H 0.3156 0.0520 0.6405
C16 C 0.3765(6) 0.0821(3) 0.5437(2)
H11 H 0.3438 0.0155 0.5234
C17 C 0.4421(5) 0.1566(3) 0.5040(2)
H12_2 H 0.4569 0.1428 0.4561
N6 N 0.1006(4) 0.6981(3) 0.85536(19)
C13_2 C 0.0143(5) 0.7525(3) 0.9637(2)
C14_2 C 0.0386(5) 0.7716(3) 0.8940(2)
H9_2 H 0.0106 0.8386 0.8731
C15_2 C 0.1413(5) 0.6049(3) 0.8866(2)
H10_2 H 0.1844 0.5520 0.8595
C16_2 C 0.1235(6) 0.5821(3) 0.9563(2)
H11_2 H 0.1562 0.5155 0.9766
C17_2 C 0.0579(5) 0.6566(3) 0.9960(2)
Br1_2 Br 0.31196(7) 0.81726(4) 0.63342(3)
N1_2 N 0.4157(4) 0.7891(3) 0.8311(2)
N7_2 N 0.0727(5) 0.9076(3) 0.7591(2)
N8_2 N 0.1375(5) 0.9899(3) 0.7560(2)
C1_2 C 0.6702(5) 0.8413(3) 0.9338(2)
C2_2 C 0.5428(5) 0.9089(4) 0.9181(2)
H1_2 H 0.5410 0.9748 0.9423
C3_2 C 0.4196(6) 0.8806(4) 0.8677(2)
H2_2 H 0.3334 0.9278 0.8582
C4_2 C 0.5361(6) 0.7227(4) 0.8480(3)
H3_2 H 0.5340 0.6568 0.8236
C5_2 C 0.6636(5) 0.7442(4) 0.8991(3)
H4_2 H 0.7448 0.6936 0.9100
C6_2 C 0.7980(5) 0.8749(3) 0.9885(2)
N2_2 N 0.2804(4) 0.5492(3) 0.53532(19)
N3_2 N 0.4196(4) 0.5412(3) 0.58094(19)
N4_2 N 0.4468(4) 0.6659(3) 0.50190(18)
N5_2 N 0.9610(4) 0.6799(3) 0.6800(2)
N6_2 N 0.6006(4) 0.8019(3) 0.35536(19)
C1_3 C 0.1702(5) 0.6587(3) 0.4338(2)
C2_3 C 0.0428(5) 0.5911(4) 0.4181(2)
H1_3 H 0.0410 0.5252 0.4423
C4_3 C 0.0361(6) 0.7773(4) 0.3480(3)
H3_3 H 0.0340 0.8432 0.3236
C5_3 C 0.1636(5) 0.7558(4) 0.3991(3)
H4_3 H 0.2448 0.8064 0.4100
C6_3 C 0.2980(5) 0.6251(3) 0.4885(2)
C7_3 C 0.5166(5) 0.6120(3) 0.5607(2)
C8_3 C 0.6735(5) 0.6329(3) 0.5993(2)
C9_3 C 0.7993(5) 0.6655(3) 0.5667(2)
H5_3 H 0.7894 0.6723 0.5163
C10_3 C 0.9394(5) 0.6879(4) 0.6089(2)
C11_3 C 0.8405(6) 0.6449(4) 0.7108(3)
H7_3 H 0.8544 0.6364 0.7611
C12_3 C 0.6966(6) 0.6204(4) 0.6727(2)
H8_3 H 0.6142 0.5953 0.6967
C13_3 C 0.5143(5) 0.7475(3) 0.4637(2)
C14_3 C 0.5386(5) 0.7284(3) 0.3940(2)
H9_3 H 0.5106 0.6614 0.3731
C15_3 C 0.6413(5) 0.8951(3) 0.3866(2)
H10_3 H 0.6844 0.9480 0.3595
C16_3 C 0.6235(6) 0.9179(3) 0.4563(2)
H11_3 H 0.6562 0.9845 0.4766
C17_3 C 0.5579(5) 0.8434(3) 0.4960(2)
H12_3 H 0.5431 0.8572 0.5439
Cd2 Cd 0.69529(4) 0.75645(2) 0.245689(16)
Br1_3 Br 0.81196(7) 0.68274(4) 0.13342(3)
N1_3 N 0.9157(4) 0.7109(3) 0.3311(2)
N7_3 N 0.5727(5) 0.5924(3) 0.2591(2)
N8_3 N 0.6375(5) 0.5101(3) 0.2560(2)
N9_2 N 0.7003(5) 0.4282(3) 0.2536(2)
C3_3 C 0.9196(6) 0.6194(4) 0.3677(2)
H2_3 H 0.8334 0.5722 0.3582
Cd3 Cd 0.80471(4) 0.25645(2) 0.254311(16)
N10_2 N 0.4610(4) 0.8201(3) 0.1800(2)
N12_2 N 0.7997(5) 0.9282(3) 0.2464(2)
Br1_4 Br 0.68804(7) 0.18274(4) 0.36658(3)
N1_4 N 0.5843(4) 0.2109(3) 0.1689(2)
N7_4 N 0.9273(5) 0.0924(3) 0.2409(2)
N8_4 N 0.8625(5) 0.0101(3) 0.2440(2)
C1_4 C 0.3298(5) 0.1587(3) 0.0662(2)
C2_4 C 0.4572(5) 0.0911(4) 0.0819(2)
H1_4 H 0.4590 0.0252 0.0577
C3_4 C 0.5804(6) 0.1194(4) 0.1323(2)
H2_4 H 0.6666 0.0722 0.1418
C4_4 C 0.4639(6) 0.2773(4) 0.1520(3)
H3_4 H 0.4660 0.3432 0.1764
C5_4 C 0.3364(5) 0.2558(4) 0.1009(3)
H4_4 H 0.2552 0.3064 0.0900
C6_4 C 0.2020(5) 0.1251(3) 0.0115(2)
N11_2 N 0.8994(4) 0.3019(3) 0.14464(19)
C13_4 C 0.9857(5) 0.2475(3) 0.0363(2)
C14_4 C 0.9614(5) 0.2284(3) 0.1060(2)
H9_4 H 0.9894 0.1614 0.1269
C15_4 C 0.8587(5) 0.3951(3) 0.1134(2)
H10_4 H 0.8156 0.4480 0.1405
C16_4 C 0.8765(6) 0.4179(3) 0.0437(2)
H11_4 H 0.8438 0.4845 0.0234
C17_4 C 0.9421(5) 0.3434(3) 0.0040(2)
H6_3 H 0.9750 0.2897 0.4140
C7_4 C 0.0166(5) 0.8880(3) 0.0607(2)
C8_4 C 0.1735(5) 0.8671(3) 0.0993(2)
C9_4 C 0.2993(5) 0.8345(3) 0.0667(2)
H5_4 H 0.2894 0.8277 0.0163
C10_4 C 0.4394(5) 0.8121(4) 0.1089(2)
H6_4 H 0.5250 0.7897 0.0860
C11_4 C 0.3405(6) 0.8551(4) 0.2108(3)
H7_4 H 0.3544 0.8636 0.2611
C12_4 C 0.1966(6) 0.8796(4) 0.1727(2)
H8_4 H 0.1142 0.9047 0.1967
H12_4 H 0.0431 0.6428 0.0439
N2_3 N 0.2196(4) 0.0492(3) 0.96468(19)
N3_3 N 0.0804(4) 0.0412(3) 0.91906(19)
N4_3 N 0.0532(4) 0.1659(3) 0.99810(18)
N2_4 N 0.7804(4) 0.9508(3) 0.03532(19)
N3_4 N 0.9196(4) 0.9588(3) 0.08094(19)
N4_4 N 0.9468(4) 0.8341(3) 0.00190(18)
loop_
_geom_bond_atom_site_label_1
_geom_bond_atom_site_label_2
_geom_bond_site_symmetry_1
_geom_bond_site_symmetry_2
N5 C10 1_555 1_555
C8 C7 1_555 1_555
C9 C8 1_555 1_555
H5 C9 1_555 1_555
C10 C9 1_555 1_555
H6_2 C10 1_555 1_555
C11 N5 1_555 1_555
H7 C11 1_555 1_555
C12 C8 1_555 1_555
H8 C12 1_555 1_555
Cd4_2 N5 1_555 1_555
C11 C12 1_555 1_555
Br1 Cd4_2 1_555 1_555
Cd4_2 N1 1_555 1_555
N1 C3 1_555 1_555
N7 Cd4_2 1_555 1_555
N8 N7 1_555 1_555
N9 N8 1_555 1_555
H2 C3 1_555 1_555
Cd4 N9 1_555 1_555
N11 Cd4_2 1_555 1_555
N12 Cd4_2 1_555 1_555
N2 N3 1_555 1_555
N3 C7_2 1_555 1_555
N4 C6 1_555 1_555
N10 C10_2 1_555 1_555
N11 C14 1_555 1_555
C1 C2 1_555 1_555
C2 H1 1_555 1_555
H3 C4 1_555 1_555
C5 C1 1_555 1_555
H4 C5 1_555 1_555
C6 N2 1_555 1_555
C7_2 N4 1_555 1_555
C8_2 C7_2 1_555 1_555
C9_2 C8_2 1_555 1_555
H5_2 C9_2 1_555 1_555
C10_2 C9_2 1_555 1_555
C11_2 N10 1_555 1_555
H7_2 C11_2 1_555 1_555
C12_2 C8_2 1_555 1_555
H8_2 C12_2 1_555 1_555
C13 N4 1_555 1_555
C14 C13 1_555 1_555
H9 C14 1_555 1_555
C15 N11 1_555 1_555
H10 C15 1_555 1_555
C16 C15 1_555 1_555
H11 C16 1_555 1_555
C17 C13 1_555 1_555
H12_2 C17 1_555 1_555
C1 C6 1_555 1_555
C4 C5 1_555 1_555
C11_2 C12_2 1_555 1_555
C16 C17 1_555 1_555
N6 C14_2 1_555 1_555
C14_2 C13_2 1_555 1_555
H9_2 C14_2 1_555 1_555
C15_2 N6 1_555 1_555
H10_2 C15_2 1_555 1_555
C16_2 C15_2 1_555 1_555
H11_2 C16_2 1_555 1_555
C17_2 C13_2 1_555 1_555
Cd4 N6 1_555 1_555
C16_2 C17_2 1_555 1_555
Br1_2 Cd4 1_555 1_555
Cd4 N1_2 1_555 1_555
N1_2 C3_2 1_555 1_555
N7_2 Cd4 1_555 1_555
N8_2 N7_2 1_555 1_555
C1_2 C2_2 1_555 1_555
C2_2 H1_2 1_555 1_555
C3_2 C2_2 1_555 1_555
H2_2 C3_2 1_555 1_555
C4_2 N1_2 1_555 1_555
H3_2 C4_2 1_555 1_555
C5_2 C1_2 1_555 1_555
H4_2 C5_2 1_555 1_555
C1_2 C6_2 1_555 1_555
C4_2 C5_2 1_555 1_555
N2_2 N3_2 1_555 1_555
N3_2 C7_3 1_555 1_555
N4_2 C6_3 1_555 1_555
N5_2 C10_3 1_555 1_555
N6_2 C14_3 1_555 1_555
C1_3 C2_3 1_555 1_555
C2_3 H1_3 1_555 1_555
H3_3 C4_3 1_555 1_555
C5_3 C1_3 1_555 1_555
H4_3 C5_3 1_555 1_555
C6_3 N2_2 1_555 1_555
C7_3 N4_2 1_555 1_555
C8_3 C7_3 1_555 1_555
C9_3 C8_3 1_555 1_555
H5_3 C9_3 1_555 1_555
C10_3 C9_3 1_555 1_555
C11_3 N5_2 1_555 1_555
H7_3 C11_3 1_555 1_555
C12_3 C8_3 1_555 1_555
H8_3 C12_3 1_555 1_555
C13_3 N4_2 1_555 1_555
C14_3 C13_3 1_555 1_555
H9_3 C14_3 1_555 1_555
C15_3 N6_2 1_555 1_555
H10_3 C15_3 1_555 1_555
C16_3 C15_3 1_555 1_555
H11_3 C16_3 1_555 1_555
C17_3 C13_3 1_555 1_555
H12_3 C17_3 1_555 1_555
Cd2 N6_2 1_555 1_555
C1_3 C6_3 1_555 1_555
C4_3 C5_3 1_555 1_555
C11_3 C12_3 1_555 1_555
C16_3 C17_3 1_555 1_555
Br1_3 Cd2 1_555 1_555
Cd2 N1_3 1_555 1_555
N1_3 C3_3 1_555 1_555
N7_3 Cd2 1_555 1_555
N8_3 N7_3 1_555 1_555
N9_2 N8_3 1_555 1_555
H2_3 C3_3 1_555 1_555
Cd3 N9_2 1_555 1_555
N10_2 Cd2 1_555 1_555
N12_2 Cd2 1_555 1_555
Br1_4 Cd3 1_555 1_555
Cd3 N1_4 1_555 1_555
N1_4 C3_4 1_555 1_555
N7_4 Cd3 1_555 1_555
N8_4 N7_4 1_555 1_555
C1_4 C2_4 1_555 1_555
C2_4 H1_4 1_555 1_555
C3_4 C2_4 1_555 1_555
H2_4 C3_4 1_555 1_555
C4_4 N1_4 1_555 1_555
H3_4 C4_4 1_555 1_555
C5_4 C1_4 1_555 1_555
H4_4 C5_4 1_555 1_555
N11_2 Cd3 1_555 1_555
C1_4 C6_4 1_555 1_555
C4_4 C5_4 1_555 1_555
N11_2 C14_4 1_555 1_555
C14_4 C13_4 1_555 1_555
H9_4 C14_4 1_555 1_555
C15_4 N11_2 1_555 1_555
H10_4 C15_4 1_555 1_555
C16_4 C15_4 1_555 1_555
H11_4 C16_4 1_555 1_555
C17_4 C13_4 1_555 1_555
C16_4 C17_4 1_555 1_555
N10_2 C10_4 1_555 1_555
C8_4 C7_4 1_555 1_555
C9_4 C8_4 1_555 1_555
H5_4 C9_4 1_555 1_555
C10_4 C9_4 1_555 1_555
H6_4 C10_4 1_555 1_555
C11_4 N10_2 1_555 1_555
H7_4 C11_4 1_555 1_555
C12_4 C8_4 1_555 1_555
H8_4 C12_4 1_555 1_555
C11_4 C12_4 1_555 1_555
N2_3 N3_3 1_555 1_555
N2_4 N3_4 1_555 1_555

#END
