
###############################################################################
#
# This file contains modified crystal structure data generated from the
# MOF subset of the Cambridge Structural Database (CSD) v543 
# hosted by the Cambridge Crystallographic Data Centre (CCDC).
#
# This work is licensed under the Creative Commons
# Attribution-NonCommercial-ShareAlike 4.0 International License.
# To view a copy of this license, visit
# http://creativecommons.org/licenses/by-nc-sa/4.0/
# or send a letter to
# Creative Commons, PO Box 1866, Mountain View, CA 94042, USA.
#
# CIF created using the CSD Python API on 29 September 2022
# The structure has been converted into the P1 space group
# The structure has a 3D framework
# The original CSD entry ZUPQOT is in the tetragonal crystal system
# The original CSD entry ZUPQOT is in a Sohncke space group
# The framework has been calculated to contain at least 10.0% void space
# The void calculation uses a probe of radius 1.32A, grid spacing 0.4
#
###############################################################################

data_ZUPQOT
_chemical_formula_moiety         '(C224 H128 O96 Sc29)n'
_symmetry_cell_setting           triclinic
_symmetry_space_group_name_H-M   'P 1'
_symmetry_Int_Tables_number      1
_space_group_name_Hall           'P 1'
loop_
_symmetry_equiv_pos_site_id
_symmetry_equiv_pos_as_xyz
1 x,y,z
_cell_length_a                   17.1243(7)
_cell_length_b                   17.1243(7)
_cell_length_c                   24.1559(12)
_cell_angle_alpha                90
_cell_angle_beta                 90
_cell_angle_gamma                90
_cell_volume                     7083.52
loop_
_atom_site_label
_atom_site_type_symbol
_atom_site_fract_x
_atom_site_fract_y
_atom_site_fract_z
Sc4 Sc 0.19318(3) 0.19318(3) -0.000000
Sc6 Sc 0.28038(5) 0.000000 -0.000000
Sc1 Sc 0.69318(3) 0.30682(3) 0.500000
Sc2 Sc 0.500000 0.21962(5) 0.500000
O1 O 0.66213(16) 0.27877(17) 0.58129(10)
O2 O 0.54594(16) 0.22101(15) 0.58166(10)
O3 O 0.31118(14) 0.19692(15) 0.97964(10)
O4 O 0.36734(14) 0.08087(14) 0.97509(11)
O5 O 0.57716(14) 0.30669(14) 0.47829(10)
O6 O 0.6028(2) 0.2893(3) 0.83688(12)
C1 C 0.6030(2) 0.2535(2) 0.60576(16)
C2 C 0.6013(2) 0.2609(2) 0.66671(16)
C3 C 0.5401(2) 0.2326(3) 0.69732(16)
H1 H 0.498177 0.206983 0.679033
C4 C 0.5381(3) 0.2406(3) 0.75386(18)
H2 H 0.495143 0.220972 0.774462
C5 C 0.5994(3) 0.2777(3) 0.78060(17)
C6 C 0.6609(3) 0.3062(3) 0.75074(17)
H3 H 0.702603 0.332200 0.769008
C7 C 0.6623(3) 0.2972(3) 0.69433(16)
H4 H 0.705685 0.316183 0.673866
C8 C 0.5438(3) 0.2557(4) 0.86906(18)
C9 C 0.5551(3) 0.1825(4) 0.89038(19)
H5 H 0.602468 0.155316 0.883389
C10 C 0.4971(3) 0.1482(3) 0.92223(15)
H6 H 0.504495 0.097212 0.936852
C11 C 0.4295(2) 0.1877(2) 0.93255(15)
C12 C 0.4198(3) 0.2623(3) 0.9111(2)
H7 H 0.373337 0.290705 0.918586
C13 C 0.4785(4) 0.2954(3) 0.8787(2)
H8 H 0.471820 0.346135 0.863487
C14 C 0.3650(2) 0.1522(2) 0.96476(14)
O7 O 0.33787(16) 0.27877(17) 0.41871(10)
O8 O 0.45406(16) 0.22101(15) 0.41834(10)
O9 O 0.68882(14) 0.19692(15) 0.02036(10)
O10 O 0.63266(14) 0.08087(14) 0.02491(11)
O11 O 0.42284(14) 0.30669(14) 0.52171(10)
O12 O 0.3972(2) 0.2893(3) 0.16312(12)
C15 C 0.3970(2) 0.2535(2) 0.39424(16)
C16 C 0.3987(2) 0.2609(2) 0.33329(16)
C17 C 0.4599(2) 0.2326(3) 0.30268(16)
H9 H 0.501823 0.206983 0.320967
C18 C 0.4619(3) 0.2406(3) 0.24614(18)
H10 H 0.504857 0.220972 0.225538
C19 C 0.4006(3) 0.2777(3) 0.21940(17)
C20 C 0.3391(3) 0.3062(3) 0.24926(17)
H11 H 0.297397 0.332200 0.230992
C21 C 0.3377(3) 0.2972(3) 0.30567(16)
H12 H 0.294315 0.316183 0.326134
C22 C 0.4562(3) 0.2557(4) 0.13094(18)
C23 C 0.4449(3) 0.1825(4) 0.10962(19)
H13 H 0.397532 0.155316 0.116611
C24 C 0.5029(3) 0.1482(3) 0.07777(15)
H14 H 0.495505 0.097212 0.063148
C25 C 0.5705(2) 0.1877(2) 0.06745(15)
C26 C 0.5802(3) 0.2623(3) 0.0889(2)
H15 H 0.626663 0.290705 0.081414
C27 C 0.5215(4) 0.2954(3) 0.1213(2)
H16 H 0.528180 0.346135 0.136513
C28 C 0.6350(2) 0.1522(2) 0.03524(14)
Sc3 Sc 0.30682(3) 0.30682(3) 0.500000
Sc4_2 Sc 0.19318(3) 0.19318(3) 1.000000
Sc5 Sc 0.80682(3) 0.19318(3) 0.000000
Sc6_2 Sc 0.28038(5) 0.000000 1.000000
Sc7 Sc 0.71962(5) 0.000000 0.000000
O13 O 0.72123(17) 0.33787(16) 0.41871(10)
O14 O 0.69692(15) 0.18882(14) 0.47964(10)
O15 O 0.81118(14) 0.30308(15) 0.52036(10)
O16 O 0.58087(14) 0.13266(14) 0.47509(11)
O17 O 0.41913(14) 0.13266(14) 0.52491(11)
O18 O 0.69331(14) 0.42284(14) 0.52171(10)
Sc5_2 Sc 0.80682(3) 0.19318(3) 1.000000
Sc7_2 Sc 0.71962(5) 0.000000 1.000000
Sc6_3 Sc 0.28038(5) 1.000000 -0.000000
Sc6_4 Sc 0.28038(5) 1.000000 1.000000
Sc7_3 Sc 0.71962(5) 1.000000 0.000000
Sc7_4 Sc 0.71962(5) 1.000000 1.000000
Sc6_5 Sc 0.000000 0.28038(5) -0.000000
Sc6_6 Sc -0.000000 0.28038(5) 1.000000
Sc7_5 Sc 0.000000 0.71962(5) 0.000000
Sc7_6 Sc 0.000000 0.71962(5) 1.000000
Sc6_7 Sc 1.000000 0.28038(5) -0.000000
Sc1_2 Sc 0.69318(3) 0.69318(3) 0.500000
Sc2_2 Sc 0.78038(5) 0.500000 0.500000
O1_2 O 0.72123(17) 0.66213(16) 0.58129(10)
O2_2 O 0.77899(15) 0.54594(16) 0.58166(10)
O3_2 O 0.80308(15) 0.31118(14) 0.97964(10)
O4_2 O 0.91913(14) 0.36734(14) 0.97509(11)
O5_2 O 0.69331(14) 0.57716(14) 0.47829(10)
O6_2 O 0.7107(3) 0.6028(2) 0.83688(12)
C1_2 C 0.7465(2) 0.6030(2) 0.60576(16)
C2_2 C 0.7391(2) 0.6013(2) 0.66671(16)
C3_2 C 0.7674(3) 0.5401(2) 0.69732(16)
H1_2 H 0.793017 0.498177 0.679033
C4_2 C 0.7594(3) 0.5381(3) 0.75386(18)
H2_2 H 0.779028 0.495143 0.774462
C5_2 C 0.7223(3) 0.5994(3) 0.78060(17)
C6_2 C 0.6938(3) 0.6609(3) 0.75074(17)
H3_2 H 0.667800 0.702603 0.769008
C7_2 C 0.7028(3) 0.6623(3) 0.69433(16)
H4_2 H 0.683817 0.705685 0.673866
C8_2 C 0.7443(4) 0.5438(3) 0.86906(18)
C9_2 C 0.8175(4) 0.5551(3) 0.89038(19)
H5_2 H 0.844684 0.602468 0.883389
C10_2 C 0.8518(3) 0.4971(3) 0.92223(15)
H6_2 H 0.902788 0.504495 0.936852
C11_2 C 0.8123(2) 0.4295(2) 0.93255(15)
C12_2 C 0.7377(3) 0.4198(3) 0.9111(2)
H7_2 H 0.709295 0.373337 0.918586
C13_2 C 0.7046(3) 0.4785(4) 0.8787(2)
H8_2 H 0.653865 0.471820 0.863487
C14_2 C 0.8478(2) 0.3650(2) 0.96476(14)
O8_2 O 0.77899(15) 0.45406(16) 0.41834(10)
O9_2 O 0.80308(15) 0.68882(14) 0.02036(10)
O10_2 O 0.91913(14) 0.63266(14) 0.02491(11)
O12_2 O 0.7107(3) 0.3972(2) 0.16312(12)
C15_2 C 0.7465(2) 0.3970(2) 0.39424(16)
C16_2 C 0.7391(2) 0.3987(2) 0.33329(16)
C17_2 C 0.7674(3) 0.4599(2) 0.30268(16)
H9_2 H 0.793017 0.501823 0.320967
C18_2 C 0.7594(3) 0.4619(3) 0.24614(18)
H10_2 H 0.779028 0.504857 0.225538
C19_2 C 0.7223(3) 0.4006(3) 0.21940(17)
C20_2 C 0.6938(3) 0.3391(3) 0.24926(17)
H11_2 H 0.667800 0.297397 0.230992
C21_2 C 0.7028(3) 0.3377(3) 0.30567(16)
H12_2 H 0.683817 0.294315 0.326134
C22_2 C 0.7443(4) 0.4562(3) 0.13094(18)
C23_2 C 0.8175(4) 0.4449(3) 0.10962(19)
H13_2 H 0.844684 0.397532 0.116611
C24_2 C 0.8518(3) 0.5029(3) 0.07777(15)
H14_2 H 0.902788 0.495505 0.063148
C25_2 C 0.8123(2) 0.5705(2) 0.06745(15)
C26_2 C 0.7377(3) 0.5802(3) 0.0889(2)
H15_2 H 0.709295 0.626663 0.081414
C27_2 C 0.7046(3) 0.5215(4) 0.1213(2)
H16_2 H 0.653865 0.528180 0.136513
C28_2 C 0.8478(2) 0.6350(2) 0.03524(14)
Sc5_3 Sc 0.80682(3) 0.80682(3) 0.000000
Sc6_8 Sc 1.000000 0.28038(5) 1.000000
Sc7_7 Sc 1.000000 0.71962(5) 0.000000
O13_2 O 0.66213(16) 0.72123(17) 0.41871(10)
O14_2 O 0.81118(14) 0.69692(15) 0.47964(10)
O15_2 O 0.69692(15) 0.81118(14) 0.52036(10)
O16_2 O 0.86734(14) 0.58087(14) 0.47509(11)
O17_2 O 0.86734(14) 0.41913(14) 0.52491(11)
O18_2 O 0.57716(14) 0.69331(14) 0.52171(10)
Sc5_4 Sc 0.80682(3) 0.80682(3) 1.000000
Sc7_8 Sc 1.000000 0.71962(5) 1.000000
Sc4_3 Sc 0.19318(3) 0.80682(3) -0.000000
Sc2_3 Sc 0.21962(5) 0.500000 0.500000
O1_3 O 0.27877(17) 0.33787(16) 0.58129(10)
O2_3 O 0.22101(15) 0.45406(16) 0.58166(10)
O3_3 O 0.19692(15) 0.68882(14) 0.97964(10)
O4_3 O 0.08087(14) 0.63266(14) 0.97509(11)
O5_3 O 0.30669(14) 0.42284(14) 0.47829(10)
O6_3 O 0.2893(3) 0.3972(2) 0.83688(12)
C1_3 C 0.2535(2) 0.3970(2) 0.60576(16)
C2_3 C 0.2609(2) 0.3987(2) 0.66671(16)
C3_3 C 0.2326(3) 0.4599(2) 0.69732(16)
H1_3 H 0.206983 0.501823 0.679033
C4_3 C 0.2406(3) 0.4619(3) 0.75386(18)
H2_3 H 0.220972 0.504857 0.774462
C5_3 C 0.2777(3) 0.4006(3) 0.78060(17)
C6_3 C 0.3062(3) 0.3391(3) 0.75074(17)
H3_3 H 0.332200 0.297397 0.769008
C7_3 C 0.2972(3) 0.3377(3) 0.69433(16)
H4_3 H 0.316183 0.294315 0.673866
C8_3 C 0.2557(4) 0.4562(3) 0.86906(18)
C9_3 C 0.1825(4) 0.4449(3) 0.89038(19)
H5_3 H 0.155316 0.397532 0.883389
C10_3 C 0.1482(3) 0.5029(3) 0.92223(15)
H6_3 H 0.097212 0.495505 0.936852
C11_3 C 0.1877(2) 0.5705(2) 0.93255(15)
C12_3 C 0.2623(3) 0.5802(3) 0.9111(2)
H7_3 H 0.290705 0.626663 0.918586
C13_3 C 0.2954(3) 0.5215(4) 0.8787(2)
H8_3 H 0.346135 0.528180 0.863487
C14_3 C 0.1522(2) 0.6350(2) 0.96476(14)
O7_2 O 0.27877(17) 0.66213(16) 0.41871(10)
O8_3 O 0.22101(15) 0.54594(16) 0.41834(10)
O9_3 O 0.19692(15) 0.31118(14) 0.02036(10)
O10_3 O 0.08087(14) 0.36734(14) 0.02491(11)
O11_2 O 0.30669(14) 0.57716(14) 0.52171(10)
O12_3 O 0.2893(3) 0.6028(2) 0.16312(12)
C15_3 C 0.2535(2) 0.6030(2) 0.39424(16)
C16_3 C 0.2609(2) 0.6013(2) 0.33329(16)
C17_3 C 0.2326(3) 0.5401(2) 0.30268(16)
H9_3 H 0.206983 0.498177 0.320967
C18_3 C 0.2406(3) 0.5381(3) 0.24614(18)
H10_3 H 0.220972 0.495143 0.225538
C19_3 C 0.2777(3) 0.5994(3) 0.21940(17)
C20_3 C 0.3062(3) 0.6609(3) 0.24926(17)
H11_3 H 0.332200 0.702603 0.230992
C21_3 C 0.2972(3) 0.6623(3) 0.30567(16)
H12_3 H 0.316183 0.705685 0.326134
C22_3 C 0.2557(4) 0.5438(3) 0.13094(18)
C23_3 C 0.1825(4) 0.5551(3) 0.10962(19)
H13_3 H 0.155316 0.602468 0.116611
C24_3 C 0.1482(3) 0.4971(3) 0.07777(15)
H14_3 H 0.097212 0.504495 0.063148
C25_3 C 0.1877(2) 0.4295(2) 0.06745(15)
C26_3 C 0.2623(3) 0.4198(3) 0.0889(2)
H15_3 H 0.290705 0.373337 0.081414
C27_3 C 0.2954(3) 0.4785(4) 0.1213(2)
H16_3 H 0.346135 0.471820 0.136513
C28_3 C 0.1522(2) 0.3650(2) 0.03524(14)
Sc3_2 Sc 0.30682(3) 0.69318(3) 0.500000
Sc4_4 Sc 0.19318(3) 0.80682(3) 1.000000
O14_3 O 0.18882(14) 0.30308(15) 0.47964(10)
O15_3 O 0.30308(15) 0.18882(14) 0.52036(10)
O16_3 O 0.13266(14) 0.41913(14) 0.47509(11)
O17_3 O 0.13266(14) 0.58087(14) 0.52491(11)
Sc2_4 Sc 0.500000 0.78038(5) 0.500000
O2_4 O 0.54594(16) 0.77899(15) 0.41834(10)
O3_4 O 0.31118(14) 0.80308(15) 0.02036(10)
O4_4 O 0.36734(14) 0.91913(14) 0.02491(11)
O6_4 O 0.6028(2) 0.7107(3) 0.16312(12)
C1_4 C 0.6030(2) 0.7465(2) 0.39424(16)
C2_4 C 0.6013(2) 0.7391(2) 0.33329(16)
C3_4 C 0.5401(2) 0.7674(3) 0.30268(16)
H1_4 H 0.498177 0.793017 0.320967
C4_4 C 0.5381(3) 0.7594(3) 0.24614(18)
H2_4 H 0.495143 0.779028 0.225538
C5_4 C 0.5994(3) 0.7223(3) 0.21940(17)
C6_4 C 0.6609(3) 0.6938(3) 0.24926(17)
H3_4 H 0.702603 0.667800 0.230992
C7_4 C 0.6623(3) 0.7028(3) 0.30567(16)
H4_4 H 0.705685 0.683817 0.326134
C8_4 C 0.5438(3) 0.7443(4) 0.13094(18)
C9_4 C 0.5551(3) 0.8175(4) 0.10962(19)
H5_4 H 0.602468 0.844684 0.116611
C10_4 C 0.4971(3) 0.8518(3) 0.07777(15)
H6_4 H 0.504495 0.902788 0.063148
C11_4 C 0.4295(2) 0.8123(2) 0.06745(15)
C12_4 C 0.4198(3) 0.7377(3) 0.0889(2)
H7_4 H 0.373337 0.709295 0.081414
C13_4 C 0.4785(4) 0.7046(3) 0.1213(2)
H8_4 H 0.471820 0.653865 0.136513
C14_4 C 0.3650(2) 0.8478(2) 0.03524(14)
O7_3 O 0.33787(16) 0.72123(17) 0.58129(10)
O8_4 O 0.45406(16) 0.77899(15) 0.58166(10)
O9_4 O 0.68882(14) 0.80308(15) 0.97964(10)
O10_4 O 0.63266(14) 0.91913(14) 0.97509(11)
O11_3 O 0.42284(14) 0.69331(14) 0.47829(10)
O12_4 O 0.3972(2) 0.7107(3) 0.83688(12)
C15_4 C 0.3970(2) 0.7465(2) 0.60576(16)
C16_4 C 0.3987(2) 0.7391(2) 0.66671(16)
C17_4 C 0.4599(2) 0.7674(3) 0.69732(16)
H9_4 H 0.501823 0.793017 0.679033
C18_4 C 0.4619(3) 0.7594(3) 0.75386(18)
H10_4 H 0.504857 0.779028 0.774462
C19_4 C 0.4006(3) 0.7223(3) 0.78060(17)
C20_4 C 0.3391(3) 0.6938(3) 0.75074(17)
H11_4 H 0.297397 0.667800 0.769008
C21_4 C 0.3377(3) 0.7028(3) 0.69433(16)
H12_4 H 0.294315 0.683817 0.673866
C22_4 C 0.4562(3) 0.7443(4) 0.86906(18)
C23_4 C 0.4449(3) 0.8175(4) 0.89038(19)
H13_4 H 0.397532 0.844684 0.883389
C24_4 C 0.5029(3) 0.8518(3) 0.92223(15)
H14_4 H 0.495505 0.902788 0.936852
C25_4 C 0.5705(2) 0.8123(2) 0.93255(15)
C26_4 C 0.5802(3) 0.7377(3) 0.9111(2)
H15_4 H 0.626663 0.709295 0.918586
C27_4 C 0.5215(4) 0.7046(3) 0.8787(2)
H16_4 H 0.528180 0.653865 0.863487
C28_4 C 0.6350(2) 0.8478(2) 0.96476(14)
O16_4 O 0.58087(14) 0.86734(14) 0.52491(11)
O17_4 O 0.41913(14) 0.86734(14) 0.47509(11)
O14_4 O 0.30308(15) 0.81118(14) 0.47964(10)
O15_4 O 0.18882(14) 0.69692(15) 0.52036(10)
O1_4 O 0.16213(16) 0.77877(17) 0.08129(10)
O2_5 O 0.04594(16) 0.72101(15) 0.08166(10)
O6_5 O 0.1028(2) 0.7893(3) 0.33688(12)
C1_5 C 0.1030(2) 0.7535(2) 0.10576(16)
C2_5 C 0.1013(2) 0.7609(2) 0.16671(16)
C3_5 C 0.0401(2) 0.7326(3) 0.19732(16)
C4_5 C 0.0381(3) 0.7406(3) 0.25386(18)
C5_5 C 0.0994(3) 0.7777(3) 0.28060(17)
C6_5 C 0.1609(3) 0.8062(3) 0.25074(17)
H3_5 H 0.202603 0.832200 0.269008
C7_5 C 0.1623(3) 0.7972(3) 0.19433(16)
H4_5 H 0.205685 0.816183 0.173866
C8_5 C 0.0438(3) 0.7557(4) 0.36906(18)
C9_5 C 0.0551(3) 0.6825(4) 0.39038(19)
H5_5 H 0.102468 0.655316 0.383389
H6_5 H 0.004495 0.597212 0.436852
O18_3 O 0.19331(14) 0.92284(14) 0.02171(10)
O5_4 O 0.07716(14) 0.80669(14) 0.97829(10)
H9_5 H 0.001823 0.706983 0.820967
H10_5 H 0.004857 0.720972 0.725538
C24_5 C 0.0029(3) 0.6482(3) 0.57777(15)
C25_5 C 0.0705(2) 0.6877(2) 0.56745(15)
C26_5 C 0.0802(3) 0.7623(3) 0.5889(2)
H15_5 H 0.126663 0.790705 0.581414
C27_5 C 0.0215(4) 0.7954(3) 0.6213(2)
H16_5 H 0.028180 0.846135 0.636513
C28_5 C 0.1350(2) 0.6522(2) 0.53524(14)
O13_3 O 0.22123(17) 0.83787(16) 0.91871(10)
H1_5 H 0.998177 0.706983 0.179033
H2_5 H 0.995143 0.720972 0.274462
C10_5 C 0.9971(3) 0.6482(3) 0.42223(15)
C11_5 C 0.9295(2) 0.6877(2) 0.43255(15)
C12_5 C 0.9198(3) 0.7623(3) 0.4111(2)
H7_5 H 0.873337 0.790705 0.418586
C13_5 C 0.9785(4) 0.7954(3) 0.3787(2)
H8_5 H 0.971820 0.846135 0.363487
C14_5 C 0.8650(2) 0.6522(2) 0.46476(14)
O11_4 O 0.92284(14) 0.80669(14) 0.02171(10)
O7_4 O 0.83787(16) 0.77877(17) 0.91871(10)
O8_5 O 0.95406(16) 0.72101(15) 0.91834(10)
O12_5 O 0.8972(2) 0.7893(3) 0.66312(12)
C15_5 C 0.8970(2) 0.7535(2) 0.89424(16)
C16_5 C 0.8987(2) 0.7609(2) 0.83329(16)
C17_5 C 0.9599(2) 0.7326(3) 0.80268(16)
C18_5 C 0.9619(3) 0.7406(3) 0.74614(18)
C19_5 C 0.9006(3) 0.7777(3) 0.71940(17)
C20_5 C 0.8391(3) 0.8062(3) 0.74926(17)
H11_5 H 0.797397 0.832200 0.730992
C21_5 C 0.8377(3) 0.7972(3) 0.80567(16)
H12_5 H 0.794315 0.816183 0.826134
C22_5 C 0.9562(3) 0.7557(4) 0.63094(18)
C23_5 C 0.9449(3) 0.6825(4) 0.60962(19)
H13_5 H 0.897532 0.655316 0.616611
H14_5 H 0.995505 0.597212 0.563148
O1_5 O 0.22123(17) 0.16213(16) 0.08129(10)
O2_6 O 0.27899(15) 0.04594(16) 0.08166(10)
O6_6 O 0.2107(3) 0.1028(2) 0.33688(12)
C1_6 C 0.2465(2) 0.1030(2) 0.10576(16)
C2_6 C 0.2391(2) 0.1013(2) 0.16671(16)
C3_6 C 0.2674(3) 0.0401(2) 0.19732(16)
C4_6 C 0.2594(3) 0.0381(3) 0.25386(18)
C5_6 C 0.2223(3) 0.0994(3) 0.28060(17)
C6_6 C 0.1938(3) 0.1609(3) 0.25074(17)
H3_6 H 0.167800 0.202603 0.269008
C7_6 C 0.2028(3) 0.1623(3) 0.19433(16)
H4_6 H 0.183817 0.205685 0.173866
C8_6 C 0.2443(4) 0.0438(3) 0.36906(18)
C9_6 C 0.3175(4) 0.0551(3) 0.39038(19)
H5_6 H 0.344684 0.102468 0.383389
H6_6 H 0.402788 0.004495 0.436852
O18_4 O 0.07716(14) 0.19331(14) 0.02171(10)
O5_5 O 0.19331(14) 0.07716(14) 0.97829(10)
H9_6 H 0.293017 0.001823 0.820967
H10_6 H 0.279028 0.004857 0.725538
C24_6 C 0.3518(3) 0.0029(3) 0.57777(15)
C25_6 C 0.3123(2) 0.0705(2) 0.56745(15)
C26_6 C 0.2377(3) 0.0802(3) 0.5889(2)
H15_6 H 0.209295 0.126663 0.581414
C27_6 C 0.2046(3) 0.0215(4) 0.6213(2)
H16_6 H 0.153865 0.028180 0.636513
C28_6 C 0.3478(2) 0.1350(2) 0.53524(14)
O13_4 O 0.16213(16) 0.22123(17) 0.91871(10)
H1_6 H 0.293017 0.998177 0.179033
H2_6 H 0.279028 0.995143 0.274462
C10_6 C 0.3518(3) 0.9971(3) 0.42223(15)
C11_6 C 0.3123(2) 0.9295(2) 0.43255(15)
C12_6 C 0.2377(3) 0.9198(3) 0.4111(2)
H7_6 H 0.209295 0.873337 0.418586
C13_6 C 0.2046(3) 0.9785(4) 0.3787(2)
H8_6 H 0.153865 0.971820 0.363487
C14_6 C 0.3478(2) 0.8650(2) 0.46476(14)
O8_6 O 0.27899(15) 0.95406(16) 0.91834(10)
O12_6 O 0.2107(3) 0.8972(2) 0.66312(12)
C15_6 C 0.2465(2) 0.8970(2) 0.89424(16)
C16_6 C 0.2391(2) 0.8987(2) 0.83329(16)
C17_6 C 0.2674(3) 0.9599(2) 0.80268(16)
C18_6 C 0.2594(3) 0.9619(3) 0.74614(18)
C19_6 C 0.2223(3) 0.9006(3) 0.71940(17)
C20_6 C 0.1938(3) 0.8391(3) 0.74926(17)
H11_6 H 0.167800 0.797397 0.730992
C21_6 C 0.2028(3) 0.8377(3) 0.80567(16)
H12_6 H 0.183817 0.794315 0.826134
C22_6 C 0.2443(4) 0.9562(3) 0.63094(18)
C23_6 C 0.3175(4) 0.9449(3) 0.60962(19)
H13_6 H 0.344684 0.897532 0.616611
H14_6 H 0.402788 0.995505 0.563148
H1_7 H 0.706983 0.001823 0.179033
H2_7 H 0.720972 0.004857 0.274462
C10_7 C 0.6482(3) 0.0029(3) 0.42223(15)
C11_7 C 0.6877(2) 0.0705(2) 0.43255(15)
C12_7 C 0.7623(3) 0.0802(3) 0.4111(2)
H7_7 H 0.790705 0.126663 0.418586
C13_7 C 0.7954(3) 0.0215(4) 0.3787(2)
H8_7 H 0.846135 0.028180 0.363487
C14_7 C 0.6522(2) 0.1350(2) 0.46476(14)
O11_5 O 0.80669(14) 0.07716(14) 0.02171(10)
O7_5 O 0.77877(17) 0.16213(16) 0.91871(10)
O8_7 O 0.72101(15) 0.04594(16) 0.91834(10)
O12_7 O 0.7893(3) 0.1028(2) 0.66312(12)
C15_7 C 0.7535(2) 0.1030(2) 0.89424(16)
C16_7 C 0.7609(2) 0.1013(2) 0.83329(16)
C17_7 C 0.7326(3) 0.0401(2) 0.80268(16)
C18_7 C 0.7406(3) 0.0381(3) 0.74614(18)
C19_7 C 0.7777(3) 0.0994(3) 0.71940(17)
C20_7 C 0.8062(3) 0.1609(3) 0.74926(17)
H11_7 H 0.832200 0.202603 0.730992
C21_7 C 0.7972(3) 0.1623(3) 0.80567(16)
H12_7 H 0.816183 0.205685 0.826134
C22_7 C 0.7557(4) 0.0438(3) 0.63094(18)
C23_7 C 0.6825(4) 0.0551(3) 0.60962(19)
H13_7 H 0.655316 0.102468 0.616611
H14_7 H 0.597212 0.004495 0.563148
O1_6 O 0.77877(17) 0.83787(16) 0.08129(10)
O2_7 O 0.72101(15) 0.95406(16) 0.08166(10)
O6_7 O 0.7893(3) 0.8972(2) 0.33688(12)
C1_7 C 0.7535(2) 0.8970(2) 0.10576(16)
C2_7 C 0.7609(2) 0.8987(2) 0.16671(16)
C3_7 C 0.7326(3) 0.9599(2) 0.19732(16)
C4_7 C 0.7406(3) 0.9619(3) 0.25386(18)
C5_7 C 0.7777(3) 0.9006(3) 0.28060(17)
C6_7 C 0.8062(3) 0.8391(3) 0.25074(17)
H3_7 H 0.832200 0.797397 0.269008
C7_7 C 0.7972(3) 0.8377(3) 0.19433(16)
H4_7 H 0.816183 0.794315 0.173866
C8_7 C 0.7557(4) 0.9562(3) 0.36906(18)
C9_7 C 0.6825(4) 0.9449(3) 0.39038(19)
H5_7 H 0.655316 0.897532 0.383389
H6_7 H 0.597212 0.995505 0.436852
O5_6 O 0.80669(14) 0.92284(14) 0.97829(10)
H9_7 H 0.706983 0.998177 0.820967
H10_7 H 0.720972 0.995143 0.725538
C24_7 C 0.6482(3) 0.9971(3) 0.57777(15)
C25_7 C 0.6877(2) 0.9295(2) 0.56745(15)
C26_7 C 0.7623(3) 0.9198(3) 0.5889(2)
H15_7 H 0.790705 0.873337 0.581414
C27_7 C 0.7954(3) 0.9785(4) 0.6213(2)
H16_7 H 0.846135 0.971820 0.636513
C28_7 C 0.6522(2) 0.8650(2) 0.53524(14)
H9_8 H 0.001823 0.293017 0.179033
H10_8 H 0.004857 0.279028 0.274462
C24_8 C 0.0029(3) 0.3518(3) 0.42223(15)
C25_8 C 0.0705(2) 0.3123(2) 0.43255(15)
C26_8 C 0.0802(3) 0.2377(3) 0.4111(2)
H15_8 H 0.126663 0.209295 0.418586
C27_8 C 0.0215(4) 0.2046(3) 0.3787(2)
H16_8 H 0.028180 0.153865 0.363487
C28_8 C 0.1350(2) 0.3478(2) 0.46476(14)
O2_8 O 0.04594(16) 0.27899(15) 0.91834(10)
O6_8 O 0.1028(2) 0.2107(3) 0.66312(12)
C1_8 C 0.1030(2) 0.2465(2) 0.89424(16)
C2_8 C 0.1013(2) 0.2391(2) 0.83329(16)
C3_8 C 0.0401(2) 0.2674(3) 0.80268(16)
C4_8 C 0.0381(3) 0.2594(3) 0.74614(18)
C5_8 C 0.0994(3) 0.2223(3) 0.71940(17)
C6_8 C 0.1609(3) 0.1938(3) 0.74926(17)
H3_8 H 0.202603 0.167800 0.730992
C7_8 C 0.1623(3) 0.2028(3) 0.80567(16)
H4_8 H 0.205685 0.183817 0.826134
C8_8 C 0.0438(3) 0.2443(4) 0.63094(18)
C9_8 C 0.0551(3) 0.3175(4) 0.60962(19)
H5_8 H 0.102468 0.344684 0.616611
H6_8 H 0.004495 0.402788 0.563148
O7_6 O 0.83787(16) 0.22123(17) 0.08129(10)
O8_8 O 0.95406(16) 0.27899(15) 0.08166(10)
O12_8 O 0.8972(2) 0.2107(3) 0.33688(12)
C15_8 C 0.8970(2) 0.2465(2) 0.10576(16)
C16_8 C 0.8987(2) 0.2391(2) 0.16671(16)
C17_8 C 0.9599(2) 0.2674(3) 0.19732(16)
C18_8 C 0.9619(3) 0.2594(3) 0.25386(18)
C19_8 C 0.9006(3) 0.2223(3) 0.28060(17)
C20_8 C 0.8391(3) 0.1938(3) 0.25074(17)
H11_8 H 0.797397 0.167800 0.269008
C21_8 C 0.8377(3) 0.2028(3) 0.19433(16)
H12_8 H 0.794315 0.183817 0.173866
C22_8 C 0.9562(3) 0.2443(4) 0.36906(18)
C23_8 C 0.9449(3) 0.3175(4) 0.39038(19)
H13_8 H 0.897532 0.344684 0.383389
H14_8 H 0.995505 0.402788 0.436852
H1_8 H 0.998177 0.293017 0.820967
H2_8 H 0.995143 0.279028 0.725538
C10_8 C 0.9971(3) 0.3518(3) 0.57777(15)
C11_8 C 0.9295(2) 0.3123(2) 0.56745(15)
C12_8 C 0.9198(3) 0.2377(3) 0.5889(2)
H7_8 H 0.873337 0.209295 0.581414
C13_8 C 0.9785(4) 0.2046(3) 0.6213(2)
H8_8 H 0.971820 0.153865 0.636513
C14_8 C 0.8650(2) 0.3478(2) 0.53524(14)
O11_6 O 0.92284(14) 0.19331(14) 0.97829(10)
loop_
_geom_bond_atom_site_label_1
_geom_bond_atom_site_label_2
_geom_bond_site_symmetry_1
_geom_bond_site_symmetry_2
Sc1 O1 1_555 1_555
Sc2 O2 1_555 1_555
O1 C1 1_555 1_555
O2 C1 1_555 1_555
O3 C14 1_555 1_555
O4 C14 1_555 1_555
O5 Sc1 1_555 1_555
O6 C5 1_555 1_555
C1 C2 1_555 1_555
C2 C3 1_555 1_555
C3 H1 1_555 1_555
C4 C3 1_555 1_555
H2 C4 1_555 1_555
C5 C4 1_555 1_555
C6 C5 1_555 1_555
H3 C6 1_555 1_555
C7 C2 1_555 1_555
H4 C7 1_555 1_555
C8 O6 1_555 1_555
C9 C8 1_555 1_555
H5 C9 1_555 1_555
C10 C9 1_555 1_555
H6 C10 1_555 1_555
C11 C10 1_555 1_555
C12 C11 1_555 1_555
H7 C12 1_555 1_555
C13 C8 1_555 1_555
H8 C13 1_555 1_555
C14 C11 1_555 1_555
O7 C15 1_555 1_555
O8 Sc2 1_555 1_555
O9 C28 1_555 1_555
O10 C28 1_555 1_555
O11 Sc2 1_555 1_555
O12 C19 1_555 1_555
C15 O8 1_555 1_555
C16 C15 1_555 1_555
C17 C16 1_555 1_555
H9 C17 1_555 1_555
C18 C17 1_555 1_555
H10 C18 1_555 1_555
C19 C18 1_555 1_555
C20 C19 1_555 1_555
H11 C20 1_555 1_555
C21 C16 1_555 1_555
H12 C21 1_555 1_555
C22 O12 1_555 1_555
C23 C22 1_555 1_555
H13 C23 1_555 1_555
C24 C23 1_555 1_555
H14 C24 1_555 1_555
C25 C24 1_555 1_555
C26 C25 1_555 1_555
H15 C26 1_555 1_555
C27 C22 1_555 1_555
H16 C27 1_555 1_555
C28 C25 1_555 1_555
Sc3 O7 1_555 1_555
Sc4_2 O3 1_555 1_555
Sc5 O9 1_555 1_555
Sc6_2 O4 1_555 1_555
Sc7 O10 1_555 1_555
O13 Sc1 1_555 1_555
O14 Sc1 1_555 1_555
O15 Sc1 1_555 1_555
O16 Sc2 1_555 1_555
O17 Sc2 1_555 1_555
O18 Sc1 1_555 1_555
Sc2 O5 1_555 1_555
C6 C7 1_555 1_555
C12 C13 1_555 1_555
O11 Sc3 1_555 1_555
C20 C21 1_555 1_555
C26 C27 1_555 1_555
Sc1_2 O1_2 1_555 1_555
Sc2_2 O2_2 1_555 1_555
O1_2 C1_2 1_555 1_555
O2_2 C1_2 1_555 1_555
O3_2 C14_2 1_555 1_555
O4_2 C14_2 1_555 1_555
O5_2 Sc1_2 1_555 1_555
O6_2 C5_2 1_555 1_555
C1_2 C2_2 1_555 1_555
C2_2 C3_2 1_555 1_555
C3_2 H1_2 1_555 1_555
C4_2 C3_2 1_555 1_555
H2_2 C4_2 1_555 1_555
C5_2 C4_2 1_555 1_555
C6_2 C5_2 1_555 1_555
H3_2 C6_2 1_555 1_555
C7_2 C2_2 1_555 1_555
H4_2 C7_2 1_555 1_555
C8_2 O6_2 1_555 1_555
C9_2 C8_2 1_555 1_555
H5_2 C9_2 1_555 1_555
C10_2 C9_2 1_555 1_555
H6_2 C10_2 1_555 1_555
C11_2 C10_2 1_555 1_555
C12_2 C11_2 1_555 1_555
H7_2 C12_2 1_555 1_555
C13_2 C8_2 1_555 1_555
H8_2 C13_2 1_555 1_555
C14_2 C11_2 1_555 1_555
O13 C15_2 1_555 1_555
O8_2 Sc2_2 1_555 1_555
O9_2 C28_2 1_555 1_555
O10_2 C28_2 1_555 1_555
O18 Sc2_2 1_555 1_555
O12_2 C19_2 1_555 1_555
C15_2 O8_2 1_555 1_555
C16_2 C15_2 1_555 1_555
C17_2 C16_2 1_555 1_555
H9_2 C17_2 1_555 1_555
C18_2 C17_2 1_555 1_555
H10_2 C18_2 1_555 1_555
C19_2 C18_2 1_555 1_555
C20_2 C19_2 1_555 1_555
H11_2 C20_2 1_555 1_555
C21_2 C16_2 1_555 1_555
H12_2 C21_2 1_555 1_555
C22_2 O12_2 1_555 1_555
C23_2 C22_2 1_555 1_555
H13_2 C23_2 1_555 1_555
C24_2 C23_2 1_555 1_555
H14_2 C24_2 1_555 1_555
C25_2 C24_2 1_555 1_555
C26_2 C25_2 1_555 1_555
H15_2 C26_2 1_555 1_555
C27_2 C22_2 1_555 1_555
H16_2 C27_2 1_555 1_555
C28_2 C25_2 1_555 1_555
Sc5_2 O3_2 1_555 1_555
Sc5_3 O9_2 1_555 1_555
Sc6_8 O4_2 1_555 1_555
Sc7_7 O10_2 1_555 1_555
O13_2 Sc1_2 1_555 1_555
O14_2 Sc1_2 1_555 1_555
O15_2 Sc1_2 1_555 1_555
O16_2 Sc2_2 1_555 1_555
O17_2 Sc2_2 1_555 1_555
O18_2 Sc1_2 1_555 1_555
Sc2_2 O5_2 1_555 1_555
C6_2 C7_2 1_555 1_555
C12_2 C13_2 1_555 1_555
C20_2 C21_2 1_555 1_555
C26_2 C27_2 1_555 1_555
Sc3 O1_3 1_555 1_555
Sc2_3 O2_3 1_555 1_555
O1_3 C1_3 1_555 1_555
O2_3 C1_3 1_555 1_555
O3_3 C14_3 1_555 1_555
O4_3 C14_3 1_555 1_555
O5_3 Sc3 1_555 1_555
O6_3 C5_3 1_555 1_555
C1_3 C2_3 1_555 1_555
C2_3 C3_3 1_555 1_555
C3_3 H1_3 1_555 1_555
C4_3 C3_3 1_555 1_555
H2_3 C4_3 1_555 1_555
C5_3 C4_3 1_555 1_555
C6_3 C5_3 1_555 1_555
H3_3 C6_3 1_555 1_555
C7_3 C2_3 1_555 1_555
H4_3 C7_3 1_555 1_555
C8_3 O6_3 1_555 1_555
C9_3 C8_3 1_555 1_555
H5_3 C9_3 1_555 1_555
C10_3 C9_3 1_555 1_555
H6_3 C10_3 1_555 1_555
C11_3 C10_3 1_555 1_555
C12_3 C11_3 1_555 1_555
H7_3 C12_3 1_555 1_555
C13_3 C8_3 1_555 1_555
H8_3 C13_3 1_555 1_555
C14_3 C11_3 1_555 1_555
O7_2 C15_3 1_555 1_555
O8_3 Sc2_3 1_555 1_555
O9_3 C28_3 1_555 1_555
O10_3 C28_3 1_555 1_555
O11_2 Sc2_3 1_555 1_555
O12_3 C19_3 1_555 1_555
C15_3 O8_3 1_555 1_555
C16_3 C15_3 1_555 1_555
C17_3 C16_3 1_555 1_555
H9_3 C17_3 1_555 1_555
C18_3 C17_3 1_555 1_555
H10_3 C18_3 1_555 1_555
C19_3 C18_3 1_555 1_555
C20_3 C19_3 1_555 1_555
H11_3 C20_3 1_555 1_555
C21_3 C16_3 1_555 1_555
H12_3 C21_3 1_555 1_555
C22_3 O12_3 1_555 1_555
C23_3 C22_3 1_555 1_555
H13_3 C23_3 1_555 1_555
C24_3 C23_3 1_555 1_555
H14_3 C24_3 1_555 1_555
C25_3 C24_3 1_555 1_555
C26_3 C25_3 1_555 1_555
H15_3 C26_3 1_555 1_555
C27_3 C22_3 1_555 1_555
H16_3 C27_3 1_555 1_555
C28_3 C25_3 1_555 1_555
Sc3_2 O7_2 1_555 1_555
Sc4_4 O3_3 1_555 1_555
Sc4 O9_3 1_555 1_555
Sc7_6 O4_3 1_555 1_555
Sc6_5 O10_3 1_555 1_555
O14_3 Sc3 1_555 1_555
O15_3 Sc3 1_555 1_555
O16_3 Sc2_3 1_555 1_555
O17_3 Sc2_3 1_555 1_555
Sc2_3 O5_3 1_555 1_555
C6_3 C7_3 1_555 1_555
C12_3 C13_3 1_555 1_555
O11_2 Sc3_2 1_555 1_555
C20_3 C21_3 1_555 1_555
C26_3 C27_3 1_555 1_555
Sc2_4 O2_4 1_555 1_555
O13_2 C1_4 1_555 1_555
O2_4 C1_4 1_555 1_555
O3_4 C14_4 1_555 1_555
O4_4 C14_4 1_555 1_555
O6_4 C5_4 1_555 1_555
C1_4 C2_4 1_555 1_555
C2_4 C3_4 1_555 1_555
C3_4 H1_4 1_555 1_555
C4_4 C3_4 1_555 1_555
H2_4 C4_4 1_555 1_555
C5_4 C4_4 1_555 1_555
C6_4 C5_4 1_555 1_555
H3_4 C6_4 1_555 1_555
C7_4 C2_4 1_555 1_555
H4_4 C7_4 1_555 1_555
C8_4 O6_4 1_555 1_555
C9_4 C8_4 1_555 1_555
H5_4 C9_4 1_555 1_555
C10_4 C9_4 1_555 1_555
H6_4 C10_4 1_555 1_555
C11_4 C10_4 1_555 1_555
C12_4 C11_4 1_555 1_555
H7_4 C12_4 1_555 1_555
C13_4 C8_4 1_555 1_555
H8_4 C13_4 1_555 1_555
C14_4 C11_4 1_555 1_555
O7_3 C15_4 1_555 1_555
O8_4 Sc2_4 1_555 1_555
O9_4 C28_4 1_555 1_555
O10_4 C28_4 1_555 1_555
O11_3 Sc2_4 1_555 1_555
O12_4 C19_4 1_555 1_555
C15_4 O8_4 1_555 1_555
C16_4 C15_4 1_555 1_555
C17_4 C16_4 1_555 1_555
H9_4 C17_4 1_555 1_555
C18_4 C17_4 1_555 1_555
H10_4 C18_4 1_555 1_555
C19_4 C18_4 1_555 1_555
C20_4 C19_4 1_555 1_555
H11_4 C20_4 1_555 1_555
C21_4 C16_4 1_555 1_555
H12_4 C21_4 1_555 1_555
C22_4 O12_4 1_555 1_555
C23_4 C22_4 1_555 1_555
H13_4 C23_4 1_555 1_555
C24_4 C23_4 1_555 1_555
H14_4 C24_4 1_555 1_555
C25_4 C24_4 1_555 1_555
C26_4 C25_4 1_555 1_555
H15_4 C26_4 1_555 1_555
C27_4 C22_4 1_555 1_555
H16_4 C27_4 1_555 1_555
C28_4 C25_4 1_555 1_555
Sc3_2 O7_3 1_555 1_555
Sc4_3 O3_4 1_555 1_555
Sc5_4 O9_4 1_555 1_555
Sc6_3 O4_4 1_555 1_555
Sc7_4 O10_4 1_555 1_555
O16_4 Sc2_4 1_555 1_555
O17_4 Sc2_4 1_555 1_555
Sc2_4 O18_2 1_555 1_555
C6_4 C7_4 1_555 1_555
C12_4 C13_4 1_555 1_555
O11_3 Sc3_2 1_555 1_555
C20_4 C21_4 1_555 1_555
C26_4 C27_4 1_555 1_555
O14_4 Sc3_2 1_555 1_555
O15_4 Sc3_2 1_555 1_555
Sc4_3 O1_4 1_555 1_555
Sc7_5 O2_5 1_555 1_555
O1_4 C1_5 1_555 1_555
O2_5 C1_5 1_555 1_555
O6_5 C5_5 1_555 1_555
C1_5 C2_5 1_555 1_555
C2_5 C3_5 1_555 1_555
C4_5 C3_5 1_555 1_555
C5_5 C4_5 1_555 1_555
C6_5 C5_5 1_555 1_555
H3_5 C6_5 1_555 1_555
C7_5 C2_5 1_555 1_555
H4_5 C7_5 1_555 1_555
C8_5 O6_5 1_555 1_555
C9_5 C8_5 1_555 1_555
H5_5 C9_5 1_555 1_555
O18_3 Sc4_3 1_555 1_555
C6_5 C7_5 1_555 1_555
O5_4 Sc4_4 1_555 1_555
O15_4 C28_5 1_555 1_555
O17_3 C28_5 1_555 1_555
C25_5 C24_5 1_555 1_555
C26_5 C25_5 1_555 1_555
H15_5 C26_5 1_555 1_555
H16_5 C27_5 1_555 1_555
C28_5 C25_5 1_555 1_555
O13_3 Sc4_4 1_555 1_555
Sc7_6 O5_4 1_555 1_555
C26_5 C27_5 1_555 1_555
O14_2 C14_5 1_555 1_555
O16_2 C14_5 1_555 1_555
C11_5 C10_5 1_555 1_555
C12_5 C11_5 1_555 1_555
H7_5 C12_5 1_555 1_555
H8_5 C13_5 1_555 1_555
C14_5 C11_5 1_555 1_555
O11_4 Sc7_7 1_555 1_555
C12_5 C13_5 1_555 1_555
O11_4 Sc5_3 1_555 1_555
O7_4 C15_5 1_555 1_555
O8_5 Sc7_8 1_555 1_555
O12_5 C19_5 1_555 1_555
C15_5 O8_5 1_555 1_555
C16_5 C15_5 1_555 1_555
C17_5 C16_5 1_555 1_555
C18_5 C17_5 1_555 1_555
C19_5 C18_5 1_555 1_555
C20_5 C19_5 1_555 1_555
H11_5 C20_5 1_555 1_555
C21_5 C16_5 1_555 1_555
H12_5 C21_5 1_555 1_555
C22_5 O12_5 1_555 1_555
C23_5 C22_5 1_555 1_555
H13_5 C23_5 1_555 1_555
Sc5_4 O7_4 1_555 1_555
C20_5 C21_5 1_555 1_555
Sc4 O1_5 1_555 1_555
Sc6 O2_6 1_555 1_555
O1_5 C1_6 1_555 1_555
O2_6 C1_6 1_555 1_555
O6_6 C5_6 1_555 1_555
C1_6 C2_6 1_555 1_555
C2_6 C3_6 1_555 1_555
C4_6 C3_6 1_555 1_555
C5_6 C4_6 1_555 1_555
C6_6 C5_6 1_555 1_555
H3_6 C6_6 1_555 1_555
C7_6 C2_6 1_555 1_555
H4_6 C7_6 1_555 1_555
C8_6 O6_6 1_555 1_555
C9_6 C8_6 1_555 1_555
H5_6 C9_6 1_555 1_555
O18_4 Sc4 1_555 1_555
C6_6 C7_6 1_555 1_555
O5_5 Sc4_2 1_555 1_555
O15_3 C28_6 1_555 1_555
O17 C28_6 1_555 1_555
C25_6 C24_6 1_555 1_555
C26_6 C25_6 1_555 1_555
H15_6 C26_6 1_555 1_555
H16_6 C27_6 1_555 1_555
C28_6 C25_6 1_555 1_555
O13_4 Sc4_2 1_555 1_555
Sc6_2 O5_5 1_555 1_555
C26_6 C27_6 1_555 1_555
O14_4 C14_6 1_555 1_555
O17_4 C14_6 1_555 1_555
C11_6 C10_6 1_555 1_555
C12_6 C11_6 1_555 1_555
H7_6 C12_6 1_555 1_555
H8_6 C13_6 1_555 1_555
C14_6 C11_6 1_555 1_555
O18_3 Sc6_3 1_555 1_555
C12_6 C13_6 1_555 1_555
O13_3 C15_6 1_555 1_555
O8_6 Sc6_4 1_555 1_555
O12_6 C19_6 1_555 1_555
C15_6 O8_6 1_555 1_555
C16_6 C15_6 1_555 1_555
C17_6 C16_6 1_555 1_555
C18_6 C17_6 1_555 1_555
C19_6 C18_6 1_555 1_555
C20_6 C19_6 1_555 1_555
H11_6 C20_6 1_555 1_555
C21_6 C16_6 1_555 1_555
H12_6 C21_6 1_555 1_555
C22_6 O12_6 1_555 1_555
C23_6 C22_6 1_555 1_555
H13_6 C23_6 1_555 1_555
C20_6 C21_6 1_555 1_555
O14 C14_7 1_555 1_555
O16 C14_7 1_555 1_555
C11_7 C10_7 1_555 1_555
C12_7 C11_7 1_555 1_555
H7_7 C12_7 1_555 1_555
H8_7 C13_7 1_555 1_555
C14_7 C11_7 1_555 1_555
O11_5 Sc7 1_555 1_555
C12_7 C13_7 1_555 1_555
O11_5 Sc5 1_555 1_555
O7_5 C15_7 1_555 1_555
O8_7 Sc7_2 1_555 1_555
O12_7 C19_7 1_555 1_555
C15_7 O8_7 1_555 1_555
C16_7 C15_7 1_555 1_555
C17_7 C16_7 1_555 1_555
C18_7 C17_7 1_555 1_555
C19_7 C18_7 1_555 1_555
C20_7 C19_7 1_555 1_555
H11_7 C20_7 1_555 1_555
C21_7 C16_7 1_555 1_555
H12_7 C21_7 1_555 1_555
C22_7 O12_7 1_555 1_555
C23_7 C22_7 1_555 1_555
H13_7 C23_7 1_555 1_555
Sc5_2 O7_5 1_555 1_555
C20_7 C21_7 1_555 1_555
Sc5_3 O1_6 1_555 1_555
Sc7_3 O2_7 1_555 1_555
O1_6 C1_7 1_555 1_555
O2_7 C1_7 1_555 1_555
O6_7 C5_7 1_555 1_555
C1_7 C2_7 1_555 1_555
C2_7 C3_7 1_555 1_555
C4_7 C3_7 1_555 1_555
C5_7 C4_7 1_555 1_555
C6_7 C5_7 1_555 1_555
H3_7 C6_7 1_555 1_555
C7_7 C2_7 1_555 1_555
H4_7 C7_7 1_555 1_555
C8_7 O6_7 1_555 1_555
C9_7 C8_7 1_555 1_555
H5_7 C9_7 1_555 1_555
C6_7 C7_7 1_555 1_555
O5_6 Sc5_4 1_555 1_555
O15_2 C28_7 1_555 1_555
O16_4 C28_7 1_555 1_555
C25_7 C24_7 1_555 1_555
C26_7 C25_7 1_555 1_555
H15_7 C26_7 1_555 1_555
H16_7 C27_7 1_555 1_555
C28_7 C25_7 1_555 1_555
Sc7_4 O5_6 1_555 1_555
C26_7 C27_7 1_555 1_555
O14_3 C28_8 1_555 1_555
O16_3 C28_8 1_555 1_555
C25_8 C24_8 1_555 1_555
C26_8 C25_8 1_555 1_555
H15_8 C26_8 1_555 1_555
H16_8 C27_8 1_555 1_555
C28_8 C25_8 1_555 1_555
Sc6_5 O18_4 1_555 1_555
C26_8 C27_8 1_555 1_555
Sc6_6 O2_8 1_555 1_555
O13_4 C1_8 1_555 1_555
O2_8 C1_8 1_555 1_555
O6_8 C5_8 1_555 1_555
C1_8 C2_8 1_555 1_555
C2_8 C3_8 1_555 1_555
C4_8 C3_8 1_555 1_555
C5_8 C4_8 1_555 1_555
C6_8 C5_8 1_555 1_555
H3_8 C6_8 1_555 1_555
C7_8 C2_8 1_555 1_555
H4_8 C7_8 1_555 1_555
C8_8 O6_8 1_555 1_555
C9_8 C8_8 1_555 1_555
H5_8 C9_8 1_555 1_555
C6_8 C7_8 1_555 1_555
O7_6 C15_8 1_555 1_555
O8_8 Sc6_7 1_555 1_555
O12_8 C19_8 1_555 1_555
C15_8 O8_8 1_555 1_555
C16_8 C15_8 1_555 1_555
C17_8 C16_8 1_555 1_555
C18_8 C17_8 1_555 1_555
C19_8 C18_8 1_555 1_555
C20_8 C19_8 1_555 1_555
H11_8 C20_8 1_555 1_555
C21_8 C16_8 1_555 1_555
H12_8 C21_8 1_555 1_555
C22_8 O12_8 1_555 1_555
C23_8 C22_8 1_555 1_555
H13_8 C23_8 1_555 1_555
Sc5 O7_6 1_555 1_555
C20_8 C21_8 1_555 1_555
O15 C14_8 1_555 1_555
O17_2 C14_8 1_555 1_555
C11_8 C10_8 1_555 1_555
C12_8 C11_8 1_555 1_555
H7_8 C12_8 1_555 1_555
H8_8 C13_8 1_555 1_555
C14_8 C11_8 1_555 1_555
O11_6 Sc6_8 1_555 1_555
C12_8 C13_8 1_555 1_555
O11_6 Sc5_2 1_555 1_555

#END
