
###############################################################################
#
# This file contains modified crystal structure data generated from the
# MOF subset of the Cambridge Structural Database (CSD) v543 
# hosted by the Cambridge Crystallographic Data Centre (CCDC).
#
# This work is licensed under the Creative Commons
# Attribution-NonCommercial-ShareAlike 4.0 International License.
# To view a copy of this license, visit
# http://creativecommons.org/licenses/by-nc-sa/4.0/
# or send a letter to
# Creative Commons, PO Box 1866, Mountain View, CA 94042, USA.
#
# CIF created using the CSD Python API on 29 September 2022
# The structure has been converted into the P1 space group
# The structure has a 3D framework
# The original CSD entry ZUQVOW is in the cubic crystal system
# The original CSD entry ZUQVOW is in a Sohncke space group
# The framework has been calculated to contain at least 10.0% void space
# The void calculation uses a probe of radius 1.32A, grid spacing 0.4
# The framework is charged, counterions have been retained in the structure
#
###############################################################################

data_ZUQVOW
_chemical_formula_moiety         '(C24 Cr4 Na3 O48 4+)n'
_symmetry_cell_setting           triclinic
_symmetry_space_group_name_H-M   'P 1'
_symmetry_Int_Tables_number      1
_space_group_name_Hall           'P 1'
loop_
_symmetry_equiv_pos_site_id
_symmetry_equiv_pos_as_xyz
1 x,y,z
_cell_length_a                   15.515(3)
_cell_length_b                   15.515(3)
_cell_length_c                   15.515(3)
_cell_angle_alpha                90
_cell_angle_beta                 90
_cell_angle_gamma                90
_cell_volume                     3734.7
loop_
_atom_site_label
_atom_site_type_symbol
_atom_site_fract_x
_atom_site_fract_y
_atom_site_fract_z
Na1 Na 0.4002(1) 0.5998(1) 0.0998(1)
O1 O 0.2521(2) 0.6146(2) 0.0831(2)
C1 C 0.2316(2) 0.6245(2) 0.0080(2)
O5 O 0.4169(2) 0.7479(2) 0.1146(2)
O6 O 0.5487(2) 0.6238(2) 0.1108(2)
O7 O 0.3854(2) 0.5831(2) 0.2479(2)
O8 O 0.3892(2) 0.4513(2) 0.1238(2)
Cr1 Cr 0.1438(1) 0.6438(1) 0.8562(1)
O2 O 0.3762(2) 0.6108(2) 0.9513(2)
C2 C 0.3011(2) 0.6241(2) 0.9347(2)
O3 O 0.1546(1) 0.6354(2) 0.9818(2)
O4 O 0.2702(1) 0.6393(2) 0.8595(2)
O9 O 0.0182(2) 0.6546(1) 0.8646(2)
O11 O 0.0487(2) 0.8762(2) 0.8892(2)
C4 C 0.0653(2) 0.8011(2) 0.8759(2)
O12 O 0.1405(2) 0.7702(1) 0.8607(2)
O13 O 0.1354(2) 0.5182(2) 0.8454(1)
C5 C 0.1245(2) 0.4920(2) 0.7684(2)
O14 O 0.1146(2) 0.4169(2) 0.7479(2)
Na3 Na 0.0998(1) 0.4002(1) 0.5998(1)
O15 O 0.1108(2) 0.5487(2) 0.6238(2)
C6 C 0.1241(2) 0.5653(2) 0.6989(2)
O16 O 0.1393(2) 0.6405(2) 0.7298(1)
C3 C 0.9920(2) 0.7316(2) 0.8755(2)
O10 O 0.9169(2) 0.7521(2) 0.8854(2)
Na2 Na 0.9002(1) 0.9002(1) 0.9002(1)
Cr1_2 Cr 0.3562(1) 0.3562(1) 0.3562(1)
O1_2 O 0.2479(2) 0.3854(2) 0.5831(2)
O2_2 O 0.1238(2) 0.3892(2) 0.4513(2)
C1_2 C 0.2684(2) 0.3755(2) 0.5080(2)
C2_2 C 0.1989(2) 0.3759(2) 0.4347(2)
O3_2 O 0.3454(1) 0.3646(2) 0.4818(2)
O4_2 O 0.2298(1) 0.3607(2) 0.3595(2)
O5_2 O 0.0831(2) 0.2521(2) 0.6146(2)
O9_2 O 0.4818(2) 0.3454(1) 0.3646(2)
C3_2 C 0.5080(2) 0.2684(2) 0.3755(2)
O10_2 O 0.5831(2) 0.2479(2) 0.3854(2)
Na2_2 Na 0.5998(1) 0.0998(1) 0.4002(1)
O11_2 O 0.4513(2) 0.1238(2) 0.3892(2)
C4_2 C 0.4347(2) 0.1989(2) 0.3759(2)
O12_2 O 0.3595(2) 0.2298(1) 0.3607(2)
O13_2 O 0.3646(2) 0.4818(2) 0.3454(1)
C5_2 C 0.3755(2) 0.5080(2) 0.2684(2)
C6_2 C 0.3759(2) 0.4347(2) 0.1989(2)
O16_2 O 0.3607(2) 0.3595(2) 0.2298(1)
O6_2 O 0.9513(2) 0.3762(2) 0.6108(2)
C5_3 C 0.6245(2) 0.0080(2) 0.2316(2)
O14_2 O 0.6146(2) 0.0831(2) 0.2521(2)
O8_2 O 0.8892(2) 0.0487(2) 0.8762(2)
Cr1_3 Cr 0.6438(1) 0.8562(1) 0.1438(1)
O2_3 O 0.8762(2) 0.8892(2) 0.0487(2)
C2_3 C 0.8011(2) 0.8759(2) 0.0653(2)
O3_3 O 0.6546(1) 0.8646(2) 0.0182(2)
O4_3 O 0.7702(1) 0.8607(2) 0.1405(2)
O9_3 O 0.5182(2) 0.8454(1) 0.1354(2)
C3_3 C 0.4920(2) 0.7684(2) 0.1245(2)
C4_3 C 0.5653(2) 0.6989(2) 0.1241(2)
O12_3 O 0.6405(2) 0.7298(1) 0.1393(2)
O13_3 O 0.6354(2) 0.9818(2) 0.1546(1)
O15_2 O 0.6108(2) 0.9513(2) 0.3762(2)
C6_3 C 0.6241(2) 0.9347(2) 0.3011(2)
O16_3 O 0.6393(2) 0.8595(2) 0.2702(1)
O1_3 O 0.7521(2) 0.8854(2) 0.9169(2)
C1_3 C 0.7316(2) 0.8755(2) 0.9920(2)
O7_2 O 0.8854(2) 0.9169(2) 0.7521(2)
C1_4 C 0.0080(2) 0.2316(2) 0.6245(2)
Cr1_4 Cr 0.8562(1) 0.1438(1) 0.6438(1)
C2_4 C 0.9347(2) 0.3011(2) 0.6241(2)
O3_4 O 0.9818(2) 0.1546(1) 0.6354(2)
O4_4 O 0.8595(2) 0.2702(1) 0.6393(2)
O9_4 O 0.8646(2) 0.0182(2) 0.6546(1)
C4_4 C 0.8759(2) 0.0653(2) 0.8011(2)
O12_4 O 0.8607(2) 0.1405(2) 0.7702(1)
O13_4 O 0.8454(1) 0.1354(2) 0.5182(2)
C5_4 C 0.7684(2) 0.1245(2) 0.4920(2)
O14_3 O 0.7479(2) 0.1146(2) 0.4169(2)
O15_3 O 0.6238(2) 0.1108(2) 0.5487(2)
C6_4 C 0.6989(2) 0.1241(2) 0.5653(2)
O16_4 O 0.7298(1) 0.1393(2) 0.6405(2)
C3_4 C 0.8755(2) 0.9920(2) 0.7316(2)
loop_
_geom_bond_atom_site_label_1
_geom_bond_atom_site_label_2
_geom_bond_site_symmetry_1
_geom_bond_site_symmetry_2
Na1 O1 1_555 1_555
O1 C1 1_555 1_555
O5 Na1 1_555 1_555
O6 Na1 1_555 1_555
O7 Na1 1_555 1_555
O8 Na1 1_555 1_555
Cr1 O3 1_555 1_555
C2 O2 1_555 1_555
O4 Cr1 1_555 1_555
O9 Cr1 1_555 1_555
O12 Cr1 1_555 1_555
O13 Cr1 1_555 1_555
C5 O13 1_555 1_555
O14 C5 1_555 1_555
Na3 O14 1_555 1_555
O15 Na3 1_555 1_555
C6 C5 1_555 1_555
O16 Cr1 1_555 1_555
C2 O4 1_555 1_555
O11 C4 1_555 1_555
C4 O12 1_555 1_555
O15 C6 1_555 1_555
C6 O16 1_555 1_555
O10 C3 1_555 1_555
Na2 O10 1_555 1_555
Cr1_2 O3_2 1_555 1_555
Na3 O1_2 1_555 1_555
O1_2 C1_2 1_555 1_555
O2_2 Na3 1_555 1_555
C1_2 C2_2 1_555 1_555
C2_2 O2_2 1_555 1_555
O3_2 C1_2 1_555 1_555
O4_2 Cr1_2 1_555 1_555
O5_2 Na3 1_555 1_555
O9_2 Cr1_2 1_555 1_555
C3_2 O9_2 1_555 1_555
O10_2 C3_2 1_555 1_555
Na2_2 O10_2 1_555 1_555
O11_2 Na2_2 1_555 1_555
C4_2 C3_2 1_555 1_555
O12_2 Cr1_2 1_555 1_555
O13_2 Cr1_2 1_555 1_555
C5_2 O13_2 1_555 1_555
O7 C5_2 1_555 1_555
C6_2 C5_2 1_555 1_555
O16_2 Cr1_2 1_555 1_555
C2_2 O4_2 1_555 1_555
O11_2 C4_2 1_555 1_555
C4_2 O12_2 1_555 1_555
O8 C6_2 1_555 1_555
C6_2 O16_2 1_555 1_555
O14_2 C5_3 1_555 1_555
Na2_2 O14_2 1_555 1_555
Cr1_3 O3_3 1_555 1_555
C2_3 O2_3 1_555 1_555
O4_3 Cr1_3 1_555 1_555
O9_3 Cr1_3 1_555 1_555
C3_3 O9_3 1_555 1_555
O5 C3_3 1_555 1_555
C4_3 C3_3 1_555 1_555
O12_3 Cr1_3 1_555 1_555
O13_3 Cr1_3 1_555 1_555
O16_3 Cr1_3 1_555 1_555
C2_3 O4_3 1_555 1_555
O6 C4_3 1_555 1_555
C4_3 O12_3 1_555 1_555
O15_2 C6_3 1_555 1_555
C6_3 O16_3 1_555 1_555
Na2 O1_3 1_555 1_555
O1_3 C1_3 1_555 1_555
O7_2 Na2 1_555 1_555
O5_2 C1_4 1_555 1_555
Cr1_4 O3_4 1_555 1_555
C2_4 O6_2 1_555 1_555
O4_4 Cr1_4 1_555 1_555
O9_4 Cr1_4 1_555 1_555
O12_4 Cr1_4 1_555 1_555
O13_4 Cr1_4 1_555 1_555
C5_4 O13_4 1_555 1_555
O14_3 C5_4 1_555 1_555
Na2_2 O14_3 1_555 1_555
O15_3 Na2_2 1_555 1_555
C6_4 C5_4 1_555 1_555
O16_4 Cr1_4 1_555 1_555
C2_4 O4_4 1_555 1_555
O8_2 C4_4 1_555 1_555
C4_4 O12_4 1_555 1_555
O15_3 C6_4 1_555 1_555
C6_4 O16_4 1_555 1_555
O7_2 C3_4 1_555 1_555

#END
