
###############################################################################
#
# This file contains modified crystal structure data generated from the
# MOF subset of the Cambridge Structural Database (CSD) v543 
# hosted by the Cambridge Crystallographic Data Centre (CCDC).
#
# This work is licensed under the Creative Commons
# Attribution-NonCommercial-ShareAlike 4.0 International License.
# To view a copy of this license, visit
# http://creativecommons.org/licenses/by-nc-sa/4.0/
# or send a letter to
# Creative Commons, PO Box 1866, Mountain View, CA 94042, USA.
#
# CIF created using the CSD Python API on 29 September 2022
# The structure has been converted into the P1 space group
# The structure has a 3D framework
# The original CSD entry ZUQVEM is in the cubic crystal system
# The original CSD entry ZUQVEM is in a Sohncke space group
# The framework has been calculated to contain at least 10.0% void space
# The void calculation uses a probe of radius 1.32A, grid spacing 0.4
# The framework is charged, counterions have been retained in the structure
#
###############################################################################

data_ZUQVEM
_chemical_formula_moiety         '(C24 Mn7 O46 4+)n'
_symmetry_cell_setting           triclinic
_symmetry_space_group_name_H-M   'P 1'
_symmetry_Int_Tables_number      1
_space_group_name_Hall           'P 1'
loop_
_symmetry_equiv_pos_site_id
_symmetry_equiv_pos_as_xyz
1 x,y,z
_cell_length_a                   15.564(3)
_cell_length_b                   15.564(3)
_cell_length_c                   15.564(3)
_cell_angle_alpha                90
_cell_angle_beta                 90
_cell_angle_gamma                90
_cell_volume                     3770.19
loop_
_atom_site_label
_atom_site_type_symbol
_atom_site_fract_x
_atom_site_fract_y
_atom_site_fract_z
Mn1 Mn 0.1504(1) 0.1504(1) 0.1504(1)
O1 O 0.1440(2) 0.1351(2) 0.2883(2)
O2 O 0.1364(2) 0.0129(2) 0.1634(2)
C1 C 0.1250(3) 0.0601 0.3101(3)
O3 O 0.1060(2) 0.0383(2) 0.3851(2)
O8 O 0.2883(2) 0.1440(2) 0.1351(2)
C3 C 0.3101(3) 0.1250(3) 0.0601
O9 O 0.1351(2) 0.2883(2) 0.1440(2)
C4 C 0.0601 0.3101(3) 0.1250(3)
O10 O 0.1634(2) 0.1364(2) 0.0129(2)
O11 O 0.0129(2) 0.1634(2) 0.1364(2)
O14 O 0.3851(2) 0.1060(2) 0.0383(2)
O16 O 0.0383(2) 0.3851(2) 0.1060(2)
C5 C 0.2394(3) 0.1250(3) 0.9894
O13 O 0.2629(2) 0.1136(2) 0.9134(2)
Mn4 Mn 0.4004(1) 0.0996(1) 0.9004(1)
C2 C 0.1250(3) 0.9894 0.2394(3)
Mn2 Mn 0.0996(1) 0.9004(1) 0.4004(1)
O5 O 0.0866(2) 0.7629(2) 0.3864(2)
O6 O 0.1149(2) 0.8940(2) 0.5383(2)
O7 O 0.1136(2) 0.9134(2) 0.2629(2)
O12 O 0.2371(2) 0.8864(2) 0.4134(2)
C6 C 0.9894 0.2394(3) 0.1250(3)
Mn3 Mn 0.9004(1) 0.4004(1) 0.0996(1)
O15 O 0.9134(2) 0.2629(2) 0.1136(2)
O4 O 0.9617(2) 0.8851(2) 0.3940(2)
C1_2 C 0.1899 0.8750(3) 0.5601(3)
C2_2 C 0.2606 0.8750(3) 0.4894(3)
O3_2 O 0.2117(2) 0.8560(2) 0.6351(2)
Mn2_2 Mn 0.3496(1) 0.8496(1) 0.6504(1)
O4_2 O 0.3649(2) 0.7117(2) 0.6440(2)
O5_2 O 0.4871(2) 0.8366(2) 0.6364(2)
O6_2 O 0.3560(2) 0.8649(2) 0.7883(2)
O7_2 O 0.3366(2) 0.8636(2) 0.5129(2)
C6_2 C 0.0106(3) 0.7394 0.3750(3)
O12_2 O 0.3636(2) 0.9871(2) 0.6634(2)
C4_2 C 0.9399(3) 0.8101 0.3750(3)
Mn3_2 Mn 0.8496(1) 0.6504(1) 0.3496(1)
O15_2 O 0.9871(2) 0.6634(2) 0.3636(2)
O16_2 O 0.8649(2) 0.7883(2) 0.3560(2)
C5_2 C 0.7394(3) 0.3750(3) 0.0106
O13_2 O 0.7629(2) 0.3864(2) 0.0866(2)
Mn1_2 Mn 0.6504(1) 0.3496(1) 0.8496(1)
O1_2 O 0.6440(2) 0.3649(2) 0.7117(2)
O2_2 O 0.6364(2) 0.4871(2) 0.8366(2)
C1_3 C 0.6250(3) 0.4399 0.6899(3)
C2_3 C 0.6250(3) 0.5106 0.7606(3)
O3_3 O 0.6060(2) 0.4617(2) 0.6149(2)
Mn2_3 Mn 0.5996(1) 0.5996(1) 0.5996(1)
O4_3 O 0.4617(2) 0.6149(2) 0.6060(2)
O5_3 O 0.5866(2) 0.7371(2) 0.6136(2)
O6_3 O 0.6149(2) 0.6060(2) 0.4617(2)
O7_3 O 0.6136(2) 0.5866(2) 0.7371(2)
O8_2 O 0.7883(2) 0.3560(2) 0.8649(2)
C3_2 C 0.8101(3) 0.3750(3) 0.9399
O9_2 O 0.6351(2) 0.2117(2) 0.8560(2)
C4_3 C 0.5601 0.1899(3) 0.8750(3)
O10_2 O 0.6634(2) 0.3636(2) 0.9871(2)
O11_2 O 0.5129(2) 0.3366(2) 0.8636(2)
C6_3 C 0.4894 0.2606(3) 0.8750(3)
O12_3 O 0.7371(2) 0.6136(2) 0.5866(2)
O14_2 O 0.8851(2) 0.3940(2) 0.9617(2)
O15_3 O 0.4134(2) 0.2371(2) 0.8864(2)
O16_3 O 0.5383(2) 0.1149(2) 0.8940(2)
O5_4 O 0.3864(2) 0.0866(2) 0.7629(2)
O4_4 O 0.3940(2) 0.9617(2) 0.8851(2)
C2_4 C 0.3750(3) 0.0106 0.7394(3)
C1_4 C 0.3750(3) 0.9399 0.8101(3)
C4_4 C 0.4399 0.6899(3) 0.6250(3)
C6_4 C 0.5106 0.7606(3) 0.6250(3)
O8_3 O 0.8940(2) 0.5383(2) 0.1149(2)
C3_3 C 0.8750(3) 0.5601(3) 0.1899
O10_3 O 0.8864(2) 0.4134(2) 0.2371(2)
C5_3 C 0.8750(3) 0.4894(3) 0.2606
O13_3 O 0.8636(2) 0.5129(2) 0.3366(2)
O14_3 O 0.8560(2) 0.6351(2) 0.2117(2)
O8_4 O 0.7117(2) 0.6440(2) 0.3649(2)
C3_4 C 0.6899(3) 0.6250(3) 0.4399
O10_4 O 0.8366(2) 0.6364(2) 0.4871(2)
C5_4 C 0.7606(3) 0.6250(3) 0.5106
loop_
_geom_bond_atom_site_label_1
_geom_bond_atom_site_label_2
_geom_bond_site_symmetry_1
_geom_bond_site_symmetry_2
Mn1 O1 1_555 1_555
O1 C1 1_555 1_555
O2 Mn1 1_555 1_555
O3 C1 1_555 1_555
O8 Mn1 1_555 1_555
C3 O8 1_555 1_555
O9 Mn1 1_555 1_555
C4 O9 1_555 1_555
O10 Mn1 1_555 1_555
O11 Mn1 1_555 1_555
O14 C3 1_555 1_555
O16 C4 1_555 1_555
O13 C5 1_555 1_555
Mn4 O13 1_555 1_555
O5 Mn2 1_555 1_555
O6 Mn2 1_555 1_555
O7 C2 1_555 1_555
O12 Mn2 1_555 1_555
Mn2 O7 1_555 1_555
Mn3 O15 1_555 1_555
O15 C6 1_555 1_555
O6 C1_2 1_555 1_555
C1_2 C2_2 1_555 1_555
C2_2 O12 1_555 1_555
O3_2 C1_2 1_555 1_555
Mn2_2 O3_2 1_555 1_555
O4_2 Mn2_2 1_555 1_555
O5_2 Mn2_2 1_555 1_555
O6_2 Mn2_2 1_555 1_555
O7_2 C2_2 1_555 1_555
O12_2 Mn2_2 1_555 1_555
Mn2_2 O7_2 1_555 1_555
O5 C6_2 1_555 1_555
C4_2 O4 1_555 1_555
Mn3_2 O15_2 1_555 1_555
O16_2 C4_2 1_555 1_555
Mn3_2 O16_2 1_555 1_555
O13_2 C5_2 1_555 1_555
Mn3 O13_2 1_555 1_555
Mn1_2 O1_2 1_555 1_555
O1_2 C1_3 1_555 1_555
O2_2 Mn1_2 1_555 1_555
C1_3 C2_3 1_555 1_555
C2_3 O2_2 1_555 1_555
O3_3 C1_3 1_555 1_555
Mn2_3 O3_3 1_555 1_555
O4_3 Mn2_3 1_555 1_555
O5_3 Mn2_3 1_555 1_555
O6_3 Mn2_3 1_555 1_555
O7_3 C2_3 1_555 1_555
O8_2 Mn1_2 1_555 1_555
C3_2 O8_2 1_555 1_555
O9_2 Mn1_2 1_555 1_555
C4_3 O9_2 1_555 1_555
O10_2 Mn1_2 1_555 1_555
O11_2 Mn1_2 1_555 1_555
C6_3 C4_3 1_555 1_555
O12_3 Mn2_3 1_555 1_555
Mn4 O15_3 1_555 1_555
O14_2 C3_2 1_555 1_555
O15_3 C6_3 1_555 1_555
O16_3 C4_3 1_555 1_555
Mn2_3 O7_3 1_555 1_555
O11_2 C6_3 1_555 1_555
Mn4 O16_3 1_555 1_555
O5_4 Mn4 1_555 1_555
O5_4 C2_4 1_555 1_555
O6_2 C1_4 1_555 1_555
O4_4 C1_4 1_555 1_555
C4_4 O4_2 1_555 1_555
C6_4 C4_4 1_555 1_555
O5_3 C6_4 1_555 1_555
O4_3 C4_4 1_555 1_555
O5_2 C6_4 1_555 1_555
O8_3 Mn3 1_555 1_555
C3_3 O8_3 1_555 1_555
O10_3 Mn3 1_555 1_555
C5_3 C3_3 1_555 1_555
O13_3 C5_3 1_555 1_555
Mn3_2 O13_3 1_555 1_555
O14_3 C3_3 1_555 1_555
O10_3 C5_3 1_555 1_555
Mn3_2 O14_3 1_555 1_555
O8_4 Mn3_2 1_555 1_555
C3_4 O8_4 1_555 1_555
O10_4 Mn3_2 1_555 1_555
C5_4 C3_4 1_555 1_555
O12_3 C5_4 1_555 1_555
O6_3 C3_4 1_555 1_555
O10_4 C5_4 1_555 1_555

#END
