
###############################################################################
#
# This file contains modified crystal structure data generated from the
# MOF subset of the Cambridge Structural Database (CSD) v543 
# hosted by the Cambridge Crystallographic Data Centre (CCDC).
#
# This work is licensed under the Creative Commons
# Attribution-NonCommercial-ShareAlike 4.0 International License.
# To view a copy of this license, visit
# http://creativecommons.org/licenses/by-nc-sa/4.0/
# or send a letter to
# Creative Commons, PO Box 1866, Mountain View, CA 94042, USA.
#
# CIF created using the CSD Python API on 29 September 2022
# The structure has been converted into the P1 space group
# The structure has a 3D framework
# The original CSD entry ZUQVAI is in the cubic crystal system
# The original CSD entry ZUQVAI is in a Sohncke space group
# The framework has been calculated to contain at least 10.0% void space
# The void calculation uses a probe of radius 1.32A, grid spacing 0.4
#
###############################################################################

data_ZUQVAI
_chemical_formula_moiety         '(C24 Cl4 Cr4 Na3 O60)n'
_symmetry_cell_setting           triclinic
_symmetry_space_group_name_H-M   'P 1'
_symmetry_Int_Tables_number      1
_space_group_name_Hall           'P 1'
loop_
_symmetry_equiv_pos_site_id
_symmetry_equiv_pos_as_xyz
1 x,y,z
_cell_length_a                   15.523(4)
_cell_length_b                   15.523(4)
_cell_length_c                   15.523(4)
_cell_angle_alpha                90
_cell_angle_beta                 90
_cell_angle_gamma                90
_cell_volume                     3740.48
loop_
_atom_site_label
_atom_site_type_symbol
_atom_site_fract_x
_atom_site_fract_y
_atom_site_fract_z
Na1 Na 0.8460(2) 0.3460(2) 0.1540(2)
O2 O 0.6057(3) 0.3912(3) 0.0226(3)
C2 C 0.6802(4) 0.3750(5) 0.0547(4)
O3 O 0.8298(3) 0.3638(4) 0.0065(3)
O4 O 0.6977(3) 0.3592(3) 0.1292(3)
O9 O 0.9935(3) 0.3298(3) 0.1362(4)
O10 O 0.8708(3) 0.1977(3) 0.1408(3)
O11 O 0.8638(4) 0.4935(3) 0.1702(3)
O12 O 0.8592(3) 0.3708(3) 0.3023(3)
Cr1 Cr 0.6033(1) 0.3967(1) 0.8967(1)
O1 O 0.7290(3) 0.3867(3) 0.9075(3)
C1 C 0.7559(4) 0.3741(4) 0.9847(4)
O5 O 0.5925(3) 0.2710(3) 0.8867(3)
C3 C 0.5153(4) 0.2441(4) 0.8741(4)
C4 C 0.4453(4) 0.3198(4) 0.8750(5)
O6 O 0.4774(3) 0.3943(3) 0.8912(3)
O7 O 0.6133(3) 0.4075(3) 0.7710(3)
C5 C 0.6259(4) 0.4847(4) 0.7441(4)
C6 C 0.6250(5) 0.5547(4) 0.8198(4)
O8 O 0.6088(3) 0.5226(3) 0.8943(3)
O13 O 0.6408(3) 0.6292(3) 0.8023(3)
Na2 Na 0.6540(2) 0.6540(2) 0.6540(2)
O14 O 0.6362(4) 0.5065(3) 0.6702(3)
O15 O 0.3708(3) 0.3023(3) 0.8592(3)
Na3 Na 0.3460(2) 0.1540(2) 0.8460(2)
O16 O 0.4935(3) 0.1702(3) 0.8638(4)
C4_2 C 0.0547(4) 0.6802(4) 0.3750(5)
O6_2 O 0.0226(3) 0.6057(3) 0.3912(3)
O15_2 O 0.1292(3) 0.6977(3) 0.3592(3)
Na3_2 Na 0.1540(2) 0.8460(2) 0.3460(2)
O16_2 O 0.0065(3) 0.8298(3) 0.3638(4)
Cr1_2 Cr 0.8967(1) 0.6033(1) 0.3967(1)
O1_2 O 0.7710(3) 0.6133(3) 0.4075(3)
O2_2 O 0.8943(3) 0.6088(3) 0.5226(3)
C1_2 C 0.7441(4) 0.6259(4) 0.4847(4)
C2_2 C 0.8198(4) 0.6250(5) 0.5547(4)
O3_2 O 0.6702(3) 0.6362(4) 0.5065(3)
O4_2 O 0.8023(3) 0.6408(3) 0.6292(3)
O5_2 O 0.9075(3) 0.7290(3) 0.3867(3)
C3_2 C 0.9847(4) 0.7559(4) 0.3741(4)
O7_2 O 0.8867(3) 0.5925(3) 0.2710(3)
C5_2 C 0.8741(4) 0.5153(4) 0.2441(4)
C6_2 C 0.8750(5) 0.4453(4) 0.3198(4)
O8_2 O 0.8912(3) 0.4774(3) 0.3943(3)
O9_2 O 0.5065(3) 0.6702(3) 0.6362(4)
O10_2 O 0.6292(3) 0.8023(3) 0.6408(3)
O2_3 O 0.1057(3) 0.1088(3) 0.9774(3)
C2_3 C 0.1802(4) 0.1250(5) 0.9453(4)
O3_3 O 0.3298(3) 0.1362(4) 0.9935(3)
O4_3 O 0.1977(3) 0.1408(3) 0.8708(3)
O11_2 O 0.3638(4) 0.0065(3) 0.8298(3)
O12_2 O 0.3592(3) 0.1292(3) 0.6977(3)
C6_3 C 0.1250(5) 0.9453(4) 0.1802(4)
O8_3 O 0.1088(3) 0.9774(3) 0.1057(3)
O13_2 O 0.1408(3) 0.8708(3) 0.1977(3)
O14_2 O 0.1362(4) 0.9935(3) 0.3298(3)
C4_3 C 0.9453(4) 0.1802(4) 0.1250(5)
O6_3 O 0.9774(3) 0.1057(3) 0.1088(3)
O11_3 O 0.1702(3) 0.8638(4) 0.4935(3)
O12_3 O 0.3023(3) 0.8592(3) 0.3708(3)
C6_4 C 0.3750(5) 0.0547(4) 0.6802(4)
O8_4 O 0.3912(3) 0.0226(3) 0.6057(3)
Cr1_3 Cr 0.3967(1) 0.8967(1) 0.6033(1)
O1_3 O 0.2710(3) 0.8867(3) 0.5925(3)
O2_4 O 0.3943(3) 0.8912(3) 0.4774(3)
C1_3 C 0.2441(4) 0.8741(4) 0.5153(4)
C2_4 C 0.3198(4) 0.8750(5) 0.4453(4)
O5_3 O 0.4075(3) 0.7710(3) 0.6133(3)
C3_3 C 0.4847(4) 0.7441(4) 0.6259(4)
C4_4 C 0.5547(4) 0.8198(4) 0.6250(5)
O6_4 O 0.5226(3) 0.8943(3) 0.6088(3)
O7_3 O 0.3867(3) 0.9075(3) 0.7290(3)
C5_3 C 0.3741(4) 0.9847(4) 0.7559(4)
Cr1_4 Cr 0.1033(1) 0.1033(1) 0.1033(1)
O1_4 O 0.2290(3) 0.1133(3) 0.0925(3)
C1_4 C 0.2559(4) 0.1259(4) 0.0153(4)
O5_4 O 0.0925(3) 0.2290(3) 0.1133(3)
C3_4 C 0.0153(4) 0.2559(4) 0.1259(4)
O7_4 O 0.1133(3) 0.0925(3) 0.2290(3)
C5_4 C 0.1259(4) 0.0153(4) 0.2559(4)
Cl1 Cl 0.1246(1) 0.6246(1) 0.8754(1)
O17 O 0.0699(11) 0.5699(11) 0.9301(11)
O18 O 0.1619(12) 0.5698(10) 0.8131(10)
O19 O 0.1869(10) 0.6619(12) 0.9302(10)
O20 O 0.0698(10) 0.6869(10) 0.8381(12)
Cl1_2 Cl 0.3754(1) 0.3754(1) 0.3754(1)
O17_2 O 0.4301(11) 0.4301(11) 0.4301(11)
O18_2 O 0.3381(12) 0.4302(10) 0.3131(10)
O19_2 O 0.3131(10) 0.3381(12) 0.4302(10)
O20_2 O 0.4302(10) 0.3131(10) 0.3381(12)
Cl1_3 Cl 0.6246(1) 0.8754(1) 0.1246(1)
O17_3 O 0.5699(11) 0.9301(11) 0.0699(11)
O18_3 O 0.6619(12) 0.9302(10) 0.1869(10)
O19_3 O 0.6869(10) 0.8381(12) 0.0698(10)
O20_3 O 0.5698(10) 0.8131(10) 0.1619(12)
Cl1_4 Cl 0.8754(1) 0.1246(1) 0.6246(1)
O17_4 O 0.9301(11) 0.0699(11) 0.5699(11)
O18_4 O 0.8131(10) 0.1619(12) 0.5698(10)
O19_4 O 0.9302(10) 0.1869(10) 0.6619(12)
O20_4 O 0.8381(12) 0.0698(10) 0.6869(10)
loop_
_geom_bond_atom_site_label_1
_geom_bond_atom_site_label_2
_geom_bond_site_symmetry_1
_geom_bond_site_symmetry_2
Na1 O3 1_555 1_555
C2 O2 1_555 1_555
O4 Na1 1_555 1_555
O9 Na1 1_555 1_555
O10 Na1 1_555 1_555
O11 Na1 1_555 1_555
O12 Na1 1_555 1_555
C2 O4 1_555 1_555
Cr1 O1 1_555 1_555
O1 C1 1_555 1_555
O5 Cr1 1_555 1_555
C3 O5 1_555 1_555
C4 C3 1_555 1_555
O6 Cr1 1_555 1_555
O7 Cr1 1_555 1_555
C5 O7 1_555 1_555
C6 C5 1_555 1_555
O8 Cr1 1_555 1_555
O13 C6 1_555 1_555
Na2 O13 1_555 1_555
O14 C5 1_555 1_555
O15 C4 1_555 1_555
Na3 O15 1_555 1_555
O16 C3 1_555 1_555
C4 O6 1_555 1_555
C6 O8 1_555 1_555
Na2 O14 1_555 1_555
Na3 O16 1_555 1_555
O15_2 C4_2 1_555 1_555
Na3_2 O15_2 1_555 1_555
C4_2 O6_2 1_555 1_555
Na3_2 O16_2 1_555 1_555
Na2 O3_2 1_555 1_555
Cr1_2 O1_2 1_555 1_555
O1_2 C1_2 1_555 1_555
O2_2 Cr1_2 1_555 1_555
C1_2 C2_2 1_555 1_555
C2_2 O2_2 1_555 1_555
O3_2 C1_2 1_555 1_555
O4_2 Na2 1_555 1_555
O5_2 Cr1_2 1_555 1_555
C3_2 O5_2 1_555 1_555
O7_2 Cr1_2 1_555 1_555
C5_2 O7_2 1_555 1_555
C6_2 C5_2 1_555 1_555
O8_2 Cr1_2 1_555 1_555
O9_2 Na2 1_555 1_555
O10_2 Na2 1_555 1_555
O12 C6_2 1_555 1_555
O11 C5_2 1_555 1_555
C2_2 O4_2 1_555 1_555
C6_2 O8_2 1_555 1_555
Na3 O3_3 1_555 1_555
C2_3 O2_3 1_555 1_555
O4_3 Na3 1_555 1_555
O11_2 Na3 1_555 1_555
O12_2 Na3 1_555 1_555
C2_3 O4_3 1_555 1_555
O13_2 C6_3 1_555 1_555
Na3_2 O13_2 1_555 1_555
C6_3 O8_3 1_555 1_555
Na3_2 O14_2 1_555 1_555
O10 C4_3 1_555 1_555
C4_3 O6_3 1_555 1_555
O11_3 Na3_2 1_555 1_555
O12_3 Na3_2 1_555 1_555
O12_2 C6_4 1_555 1_555
C6_4 O8_4 1_555 1_555
Cr1_3 O1_3 1_555 1_555
O1_3 C1_3 1_555 1_555
O2_4 Cr1_3 1_555 1_555
C1_3 C2_4 1_555 1_555
C2_4 O2_4 1_555 1_555
O11_3 C1_3 1_555 1_555
O5_3 Cr1_3 1_555 1_555
C3_3 O5_3 1_555 1_555
C4_4 C3_3 1_555 1_555
O6_4 Cr1_3 1_555 1_555
O7_3 Cr1_3 1_555 1_555
C5_3 O7_3 1_555 1_555
O10_2 C4_4 1_555 1_555
O9_2 C3_3 1_555 1_555
C2_4 O12_3 1_555 1_555
C4_4 O6_4 1_555 1_555
Cr1_4 O1_4 1_555 1_555
O1_4 C1_4 1_555 1_555
O5_4 Cr1_4 1_555 1_555
C3_4 O5_4 1_555 1_555
O7_4 Cr1_4 1_555 1_555
C5_4 O7_4 1_555 1_555
Cl1 O17 1_555 1_555
O18 Cl1 1_555 1_555
O19 Cl1 1_555 1_555
O20 Cl1 1_555 1_555
Cl1_2 O17_2 1_555 1_555
O18_2 Cl1_2 1_555 1_555
O19_2 Cl1_2 1_555 1_555
O20_2 Cl1_2 1_555 1_555
Cl1_3 O17_3 1_555 1_555
O18_3 Cl1_3 1_555 1_555
O19_3 Cl1_3 1_555 1_555
O20_3 Cl1_3 1_555 1_555
Cl1_4 O17_4 1_555 1_555
O18_4 Cl1_4 1_555 1_555
O19_4 Cl1_4 1_555 1_555
O20_4 Cl1_4 1_555 1_555

#END
