
###############################################################################
#
# This file contains modified crystal structure data generated from the
# MOF subset of the Cambridge Structural Database (CSD) v543 
# hosted by the Cambridge Crystallographic Data Centre (CCDC).
#
# This work is licensed under the Creative Commons
# Attribution-NonCommercial-ShareAlike 4.0 International License.
# To view a copy of this license, visit
# http://creativecommons.org/licenses/by-nc-sa/4.0/
# or send a letter to
# Creative Commons, PO Box 1866, Mountain View, CA 94042, USA.
#
# CIF created using the CSD Python API on 29 September 2022
# The structure has been converted into the P1 space group
# The structure has a 3D framework
# The original CSD entry ZURQOS is in the triclinic crystal system
# The framework has been calculated to contain at least 10.0% void space
# The void calculation uses a probe of radius 1.32A, grid spacing 0.4
# H atom positions have been added when not included in the experimental data
#
###############################################################################

data_ZURQOS
_chemical_formula_moiety         '(C12 H16 Cd4 N6 Ni2)n'
_symmetry_cell_setting           triclinic
_symmetry_space_group_name_H-M   'P 1'
_symmetry_Int_Tables_number      1
_space_group_name_Hall           'P 1'
loop_
_symmetry_equiv_pos_site_id
_symmetry_equiv_pos_as_xyz
1 x,y,z
_cell_length_a                   6.960(2)
_cell_length_b                   7.718(2)
_cell_length_c                   9.693(2)
_cell_angle_alpha                90.61(2)
_cell_angle_beta                 91.72(2)
_cell_angle_gamma                90.17(2)
_cell_volume                     520.415
loop_
_atom_site_label
_atom_site_type_symbol
_atom_site_fract_x
_atom_site_fract_y
_atom_site_fract_z
Cd2 Cd -0.00000 0.00000 0.00000
Cd2_2 Cd -0.00000 -0.00000 1.00000
Cd2_3 Cd -0.00000 1.00000 0.00000
Cd2_4 Cd -0.00000 1.00000 1.00000
Cd2_5 Cd 1.00000 0.00000 0.00000
Cd2_6 Cd 1.00000 -0.00000 1.00000
Ni1 Ni 0.50000 0.50000 0.00000
N1 N 0.1983(4) 0.2366(3) 0.0630(3)
C1 C 0.3104(4) 0.3397(4) 0.0418(3)
C8 C 0.3356(4) 0.6827(4) 0.0326(3)
N9 N 0.2369(4) 0.7980(4) 0.0513(4)
Cd2_7 Cd 1.00000 1.00000 0.00000
Ni1_2 Ni 0.50000 0.50000 1.00000
N2 N 0.7631(4) 0.2020(4) 0.9487(4)
N3 N 0.1184(4) 0.0042(4) 0.7747(3)
C2 C 0.6644(4) 0.3173(4) 0.9674(3)
C3 C 0.3229(6) 0.0523(7) 0.7667(4)
C4 C 0.4112(5) 0.0235(5) 0.6266(3)
C5 C 0.3245(6) 0.0857(6) 0.5065(4)
H1 H 0.04100 0.08945 0.71974
H2 H 0.33699 0.19076 0.79338
H4 H 0.18828 0.15192 0.51020
C7 C 0.6896(4) 0.6603(4) 0.9582(3)
C9 C 0.4142(6) 0.0624(6) 0.3804(4)
N7 N 0.8017(4) 0.7634(3) 0.9370(3)
H7 H 0.34669 0.11192 0.28713
Cd2_8 Cd 1.00000 1.00000 1.00000
H10 H 0.59519 0.02472 0.15713
H15 H 0.900712 0.115124 0.268669
C6 C 0.5858(6) 0.9376(6) 0.6196(4)
H3 H 0.40481 0.97528 0.84287
H5 H 0.65331 0.88808 0.71287
C10 C 0.6755(6) 0.9143(6) 0.4935(4)
C11 C 0.5888(5) 0.9765(5) 0.3734(3)
H8 H 0.81172 0.84808 0.48980
C12 C 0.6771(6) 0.9477(7) 0.2333(4)
N10 N 0.8816(4) 0.9958(4) 0.2253(3)
H9 H 0.66301 0.80924 0.20662
H11 H 0.95900 0.91055 0.28026
H14 H 0.0992875 0.884876 0.731331
H13 H 0.894553 0.115398 0.269219
H12 H 0.741217 0.95956 0.221892
H12_2 H 0.258783 0.04044 0.778108
H13_2 H 0.105447 0.884602 0.730781
loop_
_geom_bond_atom_site_label_1
_geom_bond_atom_site_label_2
_geom_bond_site_symmetry_1
_geom_bond_site_symmetry_2
Cd2 N1 1_555 1_555
Ni1 C1 1_555 1_555
N1 C1 1_555 1_555
C8 Ni1 1_555 1_555
N9 C8 1_555 1_555
Cd2_3 N9 1_555 1_555
N2 C2 1_555 1_555
N3 Cd2_2 1_555 1_555
C2 Ni1_2 1_555 1_555
C3 N3 1_555 1_555
C4 C3 1_555 1_555
C5 C4 1_555 1_555
H1 N3 1_555 1_555
H2 C3 1_555 1_555
H4 C5 1_555 1_555
C7 Ni1_2 1_555 1_555
C9 C5 1_555 1_555
N7 C7 1_555 1_555
H7 C9 1_555 1_555
Cd2_8 N7 1_555 1_555
Cd2_6 N2 1_555 1_555
H5 C6 1_555 1_555
C10 C6 1_555 1_555
H8 C10 1_555 1_555
C12 C11 1_555 1_555
N10 C12 1_555 1_555
H9 C12 1_555 1_555
Cd2_7 N10 1_555 1_555
H11 N10 1_555 1_555
C10 C11 1_555 1_555
N10 H12 1_555 1_555
N3 H12_2 1_555 1_555

#END
