
###############################################################################
#
# This file contains modified crystal structure data generated from the
# MOF subset of the Cambridge Structural Database (CSD) v543 
# hosted by the Cambridge Crystallographic Data Centre (CCDC).
#
# This work is licensed under the Creative Commons
# Attribution-NonCommercial-ShareAlike 4.0 International License.
# To view a copy of this license, visit
# http://creativecommons.org/licenses/by-nc-sa/4.0/
# or send a letter to
# Creative Commons, PO Box 1866, Mountain View, CA 94042, USA.
#
# CIF created using the CSD Python API on 29 September 2022
# The structure has been converted into the P1 space group
# The structure has a 3D framework
# The original CSD entry ZURRIN is in the monoclinic crystal system
# The framework has been calculated to contain at least 10.0% void space
# The void calculation uses a probe of radius 1.32A, grid spacing 0.4
# H atom positions have been added when not included in the experimental data
#
###############################################################################

data_ZURRIN
_chemical_formula_moiety         '(C128 H160 Cd8 N56 Ni12)n'
_symmetry_cell_setting           triclinic
_symmetry_space_group_name_H-M   'P 1'
_symmetry_Int_Tables_number      1
_space_group_name_Hall           'P 1'
loop_
_symmetry_equiv_pos_site_id
_symmetry_equiv_pos_as_xyz
1 x,y,z
_cell_length_a                   19.820(2)
_cell_length_b                   7.738(2)
_cell_length_c                   31.213(1)
_cell_angle_alpha                90
_cell_angle_beta                 109.138(5)
_cell_angle_gamma                90
_cell_volume                     4522.48
loop_
_atom_site_label
_atom_site_type_symbol
_atom_site_fract_x
_atom_site_fract_y
_atom_site_fract_z
N4 N 0.3313(5) 0.0829(11) 0.0211(3)
C18 C 0.4577(3) 0.0609(8) 0.2080(2)
C19 C 0.5423(3) 0.0609(8) 0.2920(2)
N9 N 0.4293(3) 0.1667(7) 0.1831(2)
Cd3 Cd 0.36285(2) 0.39190(5) 0.14136(1)
Cd4 Cd 0.13715(2) 0.10810(5) 0.85864(1)
Ni1 Ni 0.50000 0.8904(1) 0.25000
Ni2 Ni 0.25000 0.75000 0.00000
N1 N 0.4391(3) 0.6098(7) 0.1821(2)
N3 N 0.2962(3) 0.6262(8) 0.0960(2)
N5 N 0.4215(3) 0.3584(7) 0.0883(2)
N6 N 0.3061(3) 0.4356(8) 0.1971(2)
N7 N 0.2614(3) 0.2370(7) 0.0963(2)
C1 C 0.4625(3) 0.7188(8) 0.2072(2)
C3 C 0.2796(3) 0.6798(8) 0.0601(2)
C4 C 0.3021(4) 0.9542(10) 0.0146(2)
C5 C 0.4591(4) 0.5159(10) 0.0815(2)
C6 C 0.4798(3) 0.5066(8) 0.0390(2)
C7 C 0.5436(4) 0.4275(10) 0.0402(2)
C9 C 0.3494(4) 0.3882(11) 0.2429(2)
C10 C 0.3186(4) 0.4480(9) 0.2796(2)
C11 C 0.2529(4) 0.3850(10) 0.2804(2)
C12 C 0.2298(4) 0.4293(9) 0.3166(2)
C13 C 0.2706(3) 0.5313(8) 0.3522(2)
C14 C 0.3349(4) 0.6000(9) 0.3501(2)
C15 C 0.3583(4) 0.5552(10) 0.3136(2)
C16 C 0.2522(4) 0.0538(9) 0.1064(2)
H1 H 0.38540 0.32582 0.05859
H2 H 0.45733 0.26339 0.09878
H3 H 0.42379 0.62789 0.07887
H4 H 0.50780 0.53237 0.11089
H5 H 0.57806 0.37148 0.07139
H7 H 0.26142 0.36476 0.18843
H8 H 0.29353 0.56083 0.19702
H9 H 0.35438 0.24663 0.24464
H10 H 0.40260 0.44645 0.25006
H11 H 0.22061 0.30330 0.25341
H12 H 0.17864 0.38264 0.31687
H13 H 0.36613 0.68653 0.37620
H14 H 0.40843 0.60585 0.31240
H17 H 0.26203 0.24150 0.06441
H18 H 0.21854 0.30018 0.09831
C17 C 0.5375(3) 0.7188(8) 0.2928(2)
C22 C 0.5630(4) 0.4208(11) 0.0011(2)
C24 C 0.2478(4) 0.5538(9) 0.3936(2)
C25 C 0.2294(3) 0.0313(8) 0.1478(2)
N8 N 0.5609(3) 0.6098(7) 0.3179(2)
H20 H 0.61215 0.35780 0.00221
C28 C 0.1651(4) 0.1000(9) 0.1499(2)
N12 N 0.2386(3) 0.7370(7) 0.4037(2)
H21 H 0.28872 0.49615 0.42295
H22 H 0.19668 0.48628 0.38773
Cd2 Cd 0.63715(2) 0.39190(5) 0.35864(1)
C31 C 0.1417(4) 0.0552(10) 0.1864(2)
H24 H 0.13387 0.18653 0.12380
Cd5 Cd 0.13715(2) 0.89190(5) 0.35864(1)
H25 H 0.23797 0.74150 0.43559
H26 H 0.28146 0.80018 0.40169
H30 H 0.09157 0.10585 0.18760
H36 H 0.20647 0.06083 0.30298
Ni2_2 Ni 0.25000 0.75000 1.00000
C8 C 0.4370(4) 0.5792(11) 0.9989(2)
H6 H 0.38785 0.64220 0.99779
C20 C 0.2204(3) 0.8202(8) 0.9399(2)
C21 C 0.1979(4) 0.5458(10) 0.9854(2)
C23 C 0.4564(4) 0.5725(10) 0.9598(2)
N10 N 0.1687(5) 0.4171(11) 0.9789(3)
N11 N 0.2038(3) 0.8738(8) 0.9040(2)
C26 C 0.5202(3) 0.4934(8) 0.9610(2)
H19 H 0.42194 0.62852 0.92861
C29 C 0.5409(4) 0.4841(10) 0.9185(2)
N13 N 0.5785(3) 0.6416(7) 0.9117(2)
H27 H 0.57621 0.37211 0.92113
H28 H 0.49220 0.46763 0.88911
Cd6 Cd 0.63715(2) 0.60810(5) 0.85864(1)
H31 H 0.61460 0.67418 0.94141
H32 H 0.54267 0.73661 0.90122
N15 N 0.5609(3) 0.3902(7) 0.8179(2)
N16 N 0.5707(3) 0.8333(7) 0.8169(2)
N17 N 0.7038(3) 0.3738(8) 0.9040(2)
N18 N 0.6939(3) 0.5644(8) 0.8029(2)
N19 N 0.7386(3) 0.7630(7) 0.9037(2)
H37 H 0.73858 0.63524 0.81157
H38 H 0.70647 0.43917 0.80298
H39 H 0.73797 0.75850 0.93559
H40 H 0.78146 0.69982 0.90169
H41 H 0.737762 0.886841 0.892819
H42 H 0.660804 0.599962 0.771812
H15 H 0.21128 0.99615 0.07705
H16 H 0.30332 0.98628 0.11227
C27 C 0.2702(4) 0.9293(9) 0.1834(2)
C30 C 0.2471(4) 0.8850(10) 0.2196(2)
H23 H 0.32136 0.88264 0.18313
C32 C 0.1814(4) 0.9480(9) 0.2204(2)
H29 H 0.27939 0.80330 0.24659
C33 C 0.1506(4) 0.8882(11) 0.2571(2)
N14 N 0.1939(3) 0.9356(8) 0.3029(2)
H33 H 0.14562 0.74663 0.25536
H34 H 0.09740 0.94645 0.24994
H35 H 0.23858 0.86476 0.31157
N4_2 N 0.6687(5) 0.0829(11) 0.4789(3)
N9_2 N 0.5707(3) 0.1667(7) 0.3169(2)
Cd4_2 Cd 0.86285(2) 0.10810(5) 0.64136(1)
Ni2_3 Ni 0.75000 0.75000 0.50000
N3_2 N 0.7038(3) 0.6262(8) 0.4040(2)
N5_2 N 0.5785(3) 0.3584(7) 0.4117(2)
N6_2 N 0.6939(3) 0.4356(8) 0.3029(2)
N7_2 N 0.7386(3) 0.2370(7) 0.4037(2)
C3_2 C 0.7204(3) 0.6798(8) 0.4399(2)
C4_2 C 0.6979(4) 0.9542(10) 0.4854(2)
C5_2 C 0.5409(4) 0.5159(10) 0.4185(2)
C6_2 C 0.5202(3) 0.5066(8) 0.4610(2)
C7_2 C 0.4564(4) 0.4275(10) 0.4598(2)
C8_2 C 0.5630(4) 0.5792(11) 0.5011(2)
C9_2 C 0.6506(4) 0.3882(11) 0.2571(2)
C10_2 C 0.6814(4) 0.4480(9) 0.2204(2)
C11_2 C 0.7471(4) 0.3850(10) 0.2196(2)
C12_2 C 0.7702(4) 0.4293(9) 0.1834(2)
C13_2 C 0.7294(3) 0.5313(8) 0.1478(2)
C14_2 C 0.6651(4) 0.6000(9) 0.1499(2)
C15_2 C 0.6417(4) 0.5552(10) 0.1864(2)
C16_2 C 0.7478(4) 0.0538(9) 0.3936(2)
H1_2 H 0.61460 0.32582 0.44141
H2_2 H 0.54267 0.26339 0.40122
H3_2 H 0.57621 0.62789 0.42113
H4_2 H 0.49220 0.53237 0.38911
H5_2 H 0.42194 0.37148 0.42861
H6_2 H 0.61215 0.64220 0.50221
H7_2 H 0.73858 0.36476 0.31157
H8_2 H 0.70647 0.56083 0.30298
H9_2 H 0.64562 0.24663 0.25536
H10_2 H 0.59740 0.44645 0.24994
H11_2 H 0.77939 0.30330 0.24659
H12_2 H 0.82136 0.38264 0.18313
H13_2 H 0.63387 0.68653 0.12380
H14_2 H 0.59157 0.60585 0.18760
H17_2 H 0.73797 0.24150 0.43559
H18_2 H 0.78146 0.30018 0.40169
C20_2 C 0.7796(3) 0.8202(8) 0.5601(2)
C21_2 C 0.8021(4) 0.5458(10) 0.5146(2)
C22_2 C 0.4370(4) 0.4208(11) 0.4989(2)
C23_2 C 0.5436(4) 0.5725(10) 0.5402(2)
C24_2 C 0.7522(4) 0.5538(9) 0.1064(2)
C25_2 C 0.7706(3) 0.0313(8) 0.3522(2)
N10_2 N 0.8313(5) 0.4171(11) 0.5211(3)
N11_2 N 0.7962(3) 0.8738(8) 0.5960(2)
C26_2 C 0.4798(3) 0.4934(8) 0.5390(2)
H19_2 H 0.57806 0.62852 0.57139
H20_2 H 0.38785 0.35780 0.49779
C28_2 C 0.8349(4) 0.1000(9) 0.3501(2)
N12_2 N 0.7614(3) 0.7370(7) 0.0963(2)
H21_2 H 0.71128 0.49615 0.07705
H22_2 H 0.80332 0.48628 0.11227
C29_2 C 0.4591(4) 0.4841(10) 0.5815(2)
C31_2 C 0.8583(4) 0.0552(10) 0.3136(2)
H24_2 H 0.86613 0.18653 0.37620
Cd5_2 Cd 0.86285(2) 0.89190(5) 0.14136(1)
H25_2 H 0.76203 0.74150 0.06441
H26_2 H 0.71854 0.80018 0.09831
N13_2 N 0.4215(3) 0.6416(7) 0.5883(2)
H27_2 H 0.42379 0.37211 0.57887
H28_2 H 0.50780 0.46763 0.61089
H30_2 H 0.90843 0.10585 0.31240
Cd6_2 Cd 0.36285(2) 0.60810(5) 0.64136(1)
H31_2 H 0.38540 0.67418 0.55859
H32_2 H 0.45733 0.73661 0.59878
H36_2 H 0.79353 0.06083 0.19702
N15_2 N 0.4391(3) 0.3902(7) 0.6821(2)
N16_2 N 0.4293(3) 0.8333(7) 0.6831(2)
N17_2 N 0.2962(3) 0.3738(8) 0.5960(2)
N18_2 N 0.3061(3) 0.5644(8) 0.6971(2)
N19_2 N 0.2614(3) 0.7630(7) 0.5963(2)
H37_2 H 0.26142 0.63524 0.68843
H38_2 H 0.29353 0.43917 0.69702
H39_2 H 0.26203 0.75850 0.56441
H40_2 H 0.21854 0.69982 0.59831
H41_2 H 0.262238 0.886841 0.607181
H42_2 H 0.339196 0.599962 0.728188
H15_2 H 0.78872 0.99615 0.42295
H16_2 H 0.69668 0.98628 0.38773
C27_2 C 0.7298(4) 0.9293(9) 0.3166(2)
C30_2 C 0.7529(4) 0.8850(10) 0.2804(2)
H23_2 H 0.67864 0.88264 0.31687
C32_2 C 0.8186(4) 0.9480(9) 0.2796(2)
H29_2 H 0.72061 0.80330 0.25341
C33_2 C 0.8494(4) 0.8882(11) 0.2429(2)
N14_2 N 0.8061(3) 0.9356(8) 0.1971(2)
H33_2 H 0.85438 0.74663 0.24464
H34_2 H 0.90260 0.94645 0.25006
H35_2 H 0.76142 0.86476 0.18843
Ni1_2 Ni -0.00000 0.3904(1) 0.25000
H4_3 H 0.00780 0.03237 0.11089
C17_2 C 0.0375(3) 0.2188(8) 0.2928(2)
C19_2 C 0.0423(3) 0.5609(8) 0.2920(2)
N8_2 N 0.0609(3) 0.1098(7) 0.3179(2)
N13_3 N 0.0785(3) 0.1416(7) 0.9117(2)
H31_3 H 0.11460 0.17418 0.94141
H32_3 H 0.04267 0.23661 0.90122
N16_3 N 0.0707(3) 0.3333(7) 0.8169(2)
N18_3 N 0.1939(3) 0.0644(8) 0.8029(2)
N19_3 N 0.2386(3) 0.2630(7) 0.9037(2)
H37_3 H 0.23858 0.13524 0.81157
H39_3 H 0.23797 0.25850 0.93559
H40_3 H 0.28146 0.19982 0.90169
H41_3 H 0.237762 0.386841 0.892819
H42_3 H 0.160804 0.0999619 0.771812
C7_3 C 0.0436(4) 0.9275(10) 0.0402(2)
H5_3 H 0.07806 0.87148 0.07139
C22_3 C 0.0630(4) 0.9208(11) 0.0011(2)
H20_3 H 0.11215 0.85780 0.00221
C26_3 C 0.0202(3) 0.9934(8) 0.9610(2)
C29_3 C 0.0409(4) 0.9841(10) 0.9185(2)
H27_3 H 0.07621 0.87211 0.92113
N15_3 N 0.0609(3) 0.8902(7) 0.8179(2)
H38_3 H 0.20647 0.93917 0.80298
Ni1_3 Ni 1.00000 0.3904(1) 0.25000
Ni2_4 Ni 0.75000 0.25000 0.00000
N1_2 N 0.9391(3) 0.1098(7) 0.1821(2)
N3_3 N 0.7962(3) 0.1262(8) 0.0960(2)
N4_3 N 0.8313(5) 0.5829(11) 0.0211(3)
C1_2 C 0.9625(3) 0.2188(8) 0.2072(2)
C3_3 C 0.7796(3) 0.1798(8) 0.0601(2)
C4_3 C 0.8021(4) 0.4542(10) 0.0146(2)
C5_3 C 0.9591(4) 0.0159(10) 0.0815(2)
C6_3 C 0.9798(3) 0.0066(8) 0.0390(2)
H3_3 H 0.92379 0.12789 0.07887
C18_2 C 0.9577(3) 0.5609(8) 0.2080(2)
N9_3 N 0.9293(3) 0.6667(7) 0.1831(2)
Ni2_5 Ni 0.75000 0.25000 1.00000
C8_3 C 0.9370(4) 0.0792(11) 0.9989(2)
H6_3 H 0.88785 0.14220 0.99779
C20_3 C 0.7204(3) 0.3202(8) 0.9399(2)
C21_3 C 0.6979(4) 0.0458(10) 0.9854(2)
C23_3 C 0.9564(4) 0.0725(10) 0.9598(2)
H19_3 H 0.92194 0.12852 0.92861
N5_3 N 0.9215(3) 0.8584(7) 0.0883(2)
H1_3 H 0.88540 0.82582 0.05859
H2_3 H 0.95733 0.76339 0.09878
N10_3 N 0.6687(5) 0.9171(11) 0.9789(3)
H28_3 H 0.99220 0.96763 0.88911
Ni2_6 Ni 0.25000 0.25000 0.50000
N3_4 N 0.2038(3) 0.1262(8) 0.4040(2)
N4_4 N 0.1687(5) 0.5829(11) 0.4789(3)
C3_4 C 0.2204(3) 0.1798(8) 0.4399(2)
C4_4 C 0.1979(4) 0.4542(10) 0.4854(2)
C5_4 C 0.0409(4) 0.0159(10) 0.4185(2)
C6_4 C 0.0202(3) 0.0066(8) 0.4610(2)
C8_4 C 0.0630(4) 0.0792(11) 0.5011(2)
H3_4 H 0.07621 0.12789 0.42113
H6_4 H 0.11215 0.14220 0.50221
C20_4 C 0.2796(3) 0.3202(8) 0.5601(2)
C21_4 C 0.3021(4) 0.0458(10) 0.5146(2)
C23_4 C 0.0436(4) 0.0725(10) 0.5402(2)
N9_4 N 0.0707(3) 0.6667(7) 0.3169(2)
H19_4 H 0.07806 0.12852 0.57139
N5_4 N 0.0785(3) 0.8584(7) 0.4117(2)
H1_4 H 0.11460 0.82582 0.44141
H2_4 H 0.04267 0.76339 0.40122
N10_4 N 0.3313(5) 0.9171(11) 0.5211(3)
H28_4 H 0.00780 0.96763 0.61089
H4_4 H 0.99220 0.03237 0.38911
N13_4 N 0.9215(3) 0.1416(7) 0.5883(2)
H31_4 H 0.88540 0.17418 0.55859
H32_4 H 0.95733 0.23661 0.59878
N16_4 N 0.9293(3) 0.3333(7) 0.6831(2)
N18_4 N 0.8061(3) 0.0644(8) 0.6971(2)
N19_4 N 0.7614(3) 0.2630(7) 0.5963(2)
H37_4 H 0.76142 0.13524 0.68843
H39_4 H 0.76203 0.25850 0.56441
H40_4 H 0.71854 0.19982 0.59831
H41_4 H 0.762238 0.386841 0.607181
H42_4 H 0.839196 0.0999619 0.728188
C7_4 C 0.9564(4) 0.9275(10) 0.4598(2)
H5_4 H 0.92194 0.87148 0.42861
C22_4 C 0.9370(4) 0.9208(11) 0.4989(2)
C26_4 C 0.9798(3) 0.9934(8) 0.5390(2)
H20_4 H 0.88785 0.85780 0.49779
C29_4 C 0.9591(4) 0.9841(10) 0.5815(2)
H27_4 H 0.92379 0.87211 0.57887
N15_4 N 0.9391(3) 0.8902(7) 0.6821(2)
H38_4 H 0.79353 0.93917 0.69702
H15_3 H 0.78872 0.00385 0.92295
H16_3 H 0.69668 0.01372 0.88773
Ni3 Ni 0.50000 0.1096(1) 0.75000
C27_3 C 0.7298(4) 0.0707(9) 0.8166(2)
C30_3 C 0.7529(4) 0.1150(10) 0.7804(2)
H23_3 H 0.67864 0.11736 0.81687
C32_3 C 0.8186(4) 0.0520(9) 0.7796(2)
H29_3 H 0.72061 0.19670 0.75341
C33_3 C 0.8494(4) 0.1118(11) 0.7429(2)
H33_3 H 0.85438 0.25337 0.74464
H34_3 H 0.90260 0.05355 0.75006
H41_5 H 0.262238 0.113159 0.107181
H42_5 H 0.339196 0.400038 0.228188
C1_3 C 0.5375(3) 0.2812(8) 0.7928(2)
C2 C 0.5423(3) 0.9391(8) 0.7920(2)
C9_3 C 0.6506(4) 0.6118(11) 0.7571(2)
C10_3 C 0.6814(4) 0.5520(9) 0.7204(2)
C11_3 C 0.7471(4) 0.6150(10) 0.7196(2)
C12_3 C 0.7702(4) 0.5707(9) 0.6834(2)
C13_3 C 0.7294(3) 0.4687(8) 0.6478(2)
C14_3 C 0.6651(4) 0.4000(9) 0.6499(2)
C15_3 C 0.6417(4) 0.4448(10) 0.6864(2)
C16_3 C 0.7478(4) 0.9462(9) 0.8936(2)
H9_3 H 0.64562 0.75337 0.75536
H10_3 H 0.59740 0.55355 0.74994
H11_3 H 0.77939 0.69670 0.74659
H12_3 H 0.82136 0.61736 0.68313
H13_3 H 0.63387 0.31347 0.62380
H14_3 H 0.59157 0.39415 0.68760
C17_3 C 0.4625(3) 0.2812(8) 0.7072(2)
C24_3 C 0.7522(4) 0.4462(9) 0.6064(2)
C25_3 C 0.7706(3) 0.9687(8) 0.8522(2)
C28_3 C 0.8349(4) 0.9000(9) 0.8501(2)
H21_3 H 0.71128 0.50385 0.57705
H22_3 H 0.80332 0.51372 0.61227
C31_3 C 0.8583(4) 0.9448(10) 0.8136(2)
H24_3 H 0.86613 0.81347 0.87620
H30_3 H 0.90843 0.89415 0.81240
C19_3 C 0.4577(3) 0.9391(8) 0.7080(2)
H15_4 H 0.21128 0.00385 0.57705
H16_4 H 0.30332 0.01372 0.61227
C27_4 C 0.2702(4) 0.0707(9) 0.6834(2)
C30_4 C 0.2471(4) 0.1150(10) 0.7196(2)
H23_4 H 0.32136 0.11736 0.68313
C32_4 C 0.1814(4) 0.0520(9) 0.7204(2)
H29_4 H 0.27939 0.19670 0.74659
C33_4 C 0.1506(4) 0.1118(11) 0.7571(2)
H33_4 H 0.14562 0.25337 0.75536
H34_4 H 0.09740 0.05355 0.74994
C9_4 C 0.3494(4) 0.6118(11) 0.7429(2)
C10_4 C 0.3186(4) 0.5520(9) 0.7796(2)
C11_4 C 0.2529(4) 0.6150(10) 0.7804(2)
C12_4 C 0.2298(4) 0.5707(9) 0.8166(2)
C13_4 C 0.2706(3) 0.4687(8) 0.8522(2)
C14_4 C 0.3349(4) 0.4000(9) 0.8501(2)
C15_4 C 0.3583(4) 0.4448(10) 0.8136(2)
C16_4 C 0.2522(4) 0.9462(9) 0.6064(2)
H9_4 H 0.35438 0.75337 0.74464
H10_4 H 0.40260 0.55355 0.75006
H11_4 H 0.22061 0.69670 0.75341
H12_4 H 0.17864 0.61736 0.81687
H13_4 H 0.36613 0.31347 0.87620
H14_4 H 0.40843 0.39415 0.81240
C24_4 C 0.2478(4) 0.4462(9) 0.8936(2)
C25_4 C 0.2294(3) 0.9687(8) 0.6478(2)
C28_4 C 0.1651(4) 0.9000(9) 0.6499(2)
H21_4 H 0.28872 0.50385 0.92295
H22_4 H 0.19668 0.51372 0.88773
C31_4 C 0.1417(4) 0.9448(10) 0.6864(2)
H24_4 H 0.13387 0.81347 0.62380
H30_4 H 0.09157 0.89415 0.68760
H41_6 H 0.737762 0.113159 0.392819
H42_6 H 0.660804 0.400038 0.271812
C2_2 C 0.0423(3) 0.4391(8) 0.7920(2)
Ni3_2 Ni 0.00000 0.6096(1) 0.75000
C1_4 C 0.0375(3) 0.7812(8) 0.7928(2)
Ni3_3 Ni 1.00000 0.6096(1) 0.75000
H41_7 H 0.762238 0.613159 0.107181
H42_7 H 0.839196 0.900038 0.228188
C17_4 C 0.9625(3) 0.7812(8) 0.7072(2)
C19_4 C 0.9577(3) 0.4391(8) 0.7080(2)
H41_8 H 0.237762 0.613159 0.392819
H42_8 H 0.160804 0.900038 0.271812
loop_
_geom_bond_atom_site_label_1
_geom_bond_atom_site_label_2
_geom_bond_site_symmetry_1
_geom_bond_site_symmetry_2
N9 C18 1_555 1_555
Cd3 N9 1_555 1_555
Cd3 N1 1_555 1_555
Ni1 C1 1_555 1_555
Ni2 C3 1_555 1_555
N1 C1 1_555 1_555
N3 Cd3 1_555 1_555
N5 Cd3 1_555 1_555
N6 Cd3 1_555 1_555
N7 Cd3 1_555 1_555
C3 N3 1_555 1_555
C4 Ni2 1_555 1_555
C5 N5 1_555 1_555
C6 C5 1_555 1_555
C7 C6 1_555 1_555
C9 N6 1_555 1_555
C10 C9 1_555 1_555
C11 C10 1_555 1_555
C12 C11 1_555 1_555
C13 C12 1_555 1_555
C14 C13 1_555 1_555
C15 C10 1_555 1_555
C16 N7 1_555 1_555
H1 N5 1_555 1_555
H2 N5 1_555 1_555
H3 C5 1_555 1_555
H4 C5 1_555 1_555
H5 C7 1_555 1_555
H7 N6 1_555 1_555
H8 N6 1_555 1_555
H9 C9 1_555 1_555
H10 C9 1_555 1_555
H11 C11 1_555 1_555
H12 C12 1_555 1_555
H13 C14 1_555 1_555
H14 C15 1_555 1_555
H17 N7 1_555 1_555
H18 N7 1_555 1_555
C17 Ni1 1_555 1_555
C22 C7 1_555 1_555
C24 C13 1_555 1_555
C25 C16 1_555 1_555
N8 C17 1_555 1_555
H20 C22 1_555 1_555
C28 C25 1_555 1_555
N12 C24 1_555 1_555
H21 C24 1_555 1_555
H22 C24 1_555 1_555
Cd2 N8 1_555 1_555
C31 C28 1_555 1_555
H24 C28 1_555 1_555
Cd5 N12 1_555 1_555
H25 N12 1_555 1_555
H26 N12 1_555 1_555
H30 C31 1_555 1_555
C14 C15 1_555 1_555
H6 C8 1_555 1_555
C20 Ni2_2 1_555 1_555
C21 Ni2_2 1_555 1_555
C23 C8 1_555 1_555
N10 C21 1_555 1_555
N11 C20 1_555 1_555
H19 C23 1_555 1_555
C29 C26 1_555 1_555
N13 C29 1_555 1_555
H27 C29 1_555 1_555
H28 C29 1_555 1_555
Cd6 N13 1_555 1_555
H31 N13 1_555 1_555
H32 N13 1_555 1_555
N15 Cd6 1_555 1_555
N16 Cd6 1_555 1_555
N17 Cd6 1_555 1_555
N18 Cd6 1_555 1_555
N19 Cd6 1_555 1_555
H37 N18 1_555 1_555
H38 N18 1_555 1_555
H39 N19 1_555 1_555
H40 N19 1_555 1_555
C23 C26 1_555 1_555
N19 H41 1_555 1_555
N18 H42 1_555 1_555
C30 C27 1_555 1_555
H23 C27 1_555 1_555
C32 C30 1_555 1_555
H29 C30 1_555 1_555
C33 C32 1_555 1_555
N14 C33 1_555 1_555
H33 C33 1_555 1_555
H34 C33 1_555 1_555
Cd5 N14 1_555 1_555
H35 N14 1_555 1_555
N9_2 C19 1_555 1_555
Cd2 N9_2 1_555 1_555
Ni2_3 C3_2 1_555 1_555
N3_2 Cd2 1_555 1_555
N5_2 Cd2 1_555 1_555
N6_2 Cd2 1_555 1_555
N7_2 Cd2 1_555 1_555
C3_2 N3_2 1_555 1_555
C4_2 Ni2_3 1_555 1_555
C5_2 N5_2 1_555 1_555
C6_2 C5_2 1_555 1_555
C7_2 C6_2 1_555 1_555
C8_2 C6_2 1_555 1_555
C9_2 N6_2 1_555 1_555
C10_2 C9_2 1_555 1_555
C11_2 C10_2 1_555 1_555
C12_2 C11_2 1_555 1_555
C13_2 C12_2 1_555 1_555
C14_2 C13_2 1_555 1_555
C15_2 C10_2 1_555 1_555
C16_2 N7_2 1_555 1_555
H1_2 N5_2 1_555 1_555
H2_2 N5_2 1_555 1_555
H3_2 C5_2 1_555 1_555
H4_2 C5_2 1_555 1_555
H5_2 C7_2 1_555 1_555
H6_2 C8_2 1_555 1_555
H7_2 N6_2 1_555 1_555
H8_2 N6_2 1_555 1_555
H9_2 C9_2 1_555 1_555
H10_2 C9_2 1_555 1_555
H11_2 C11_2 1_555 1_555
H12_2 C12_2 1_555 1_555
H13_2 C14_2 1_555 1_555
H14_2 C15_2 1_555 1_555
H17_2 N7_2 1_555 1_555
H18_2 N7_2 1_555 1_555
C20_2 Ni2_3 1_555 1_555
C21_2 Ni2_3 1_555 1_555
C22_2 C7_2 1_555 1_555
C23_2 C8_2 1_555 1_555
C24_2 C13_2 1_555 1_555
C25_2 C16_2 1_555 1_555
N10_2 C21_2 1_555 1_555
N11_2 C20_2 1_555 1_555
C26_2 C22_2 1_555 1_555
H19_2 C23_2 1_555 1_555
H20_2 C22_2 1_555 1_555
C28_2 C25_2 1_555 1_555
N12_2 C24_2 1_555 1_555
H21_2 C24_2 1_555 1_555
H22_2 C24_2 1_555 1_555
C29_2 C26_2 1_555 1_555
C31_2 C28_2 1_555 1_555
H24_2 C28_2 1_555 1_555
Cd5_2 N12_2 1_555 1_555
H25_2 N12_2 1_555 1_555
H26_2 N12_2 1_555 1_555
N13_2 C29_2 1_555 1_555
H27_2 C29_2 1_555 1_555
H28_2 C29_2 1_555 1_555
H30_2 C31_2 1_555 1_555
Cd6_2 N13_2 1_555 1_555
H31_2 N13_2 1_555 1_555
H32_2 N13_2 1_555 1_555
N15_2 Cd6_2 1_555 1_555
N16_2 Cd6_2 1_555 1_555
N17_2 Cd6_2 1_555 1_555
N18_2 Cd6_2 1_555 1_555
N19_2 Cd6_2 1_555 1_555
H37_2 N18_2 1_555 1_555
H38_2 N18_2 1_555 1_555
H39_2 N19_2 1_555 1_555
H40_2 N19_2 1_555 1_555
C14_2 C15_2 1_555 1_555
C23_2 C26_2 1_555 1_555
N19_2 H41_2 1_555 1_555
N18_2 H42_2 1_555 1_555
C30_2 C27_2 1_555 1_555
H23_2 C27_2 1_555 1_555
C32_2 C30_2 1_555 1_555
H29_2 C30_2 1_555 1_555
C33_2 C32_2 1_555 1_555
N14_2 C33_2 1_555 1_555
H33_2 C33_2 1_555 1_555
H34_2 C33_2 1_555 1_555
Cd5_2 N14_2 1_555 1_555
H35_2 N14_2 1_555 1_555
C17_2 Ni1_2 1_555 1_555
C19_2 Ni1_2 1_555 1_555
N8_2 C17_2 1_555 1_555
Cd4 N13_3 1_555 1_555
H31_3 N13_3 1_555 1_555
H32_3 N13_3 1_555 1_555
N16_3 Cd4 1_555 1_555
N18_3 Cd4 1_555 1_555
N19_3 Cd4 1_555 1_555
H37_3 N18_3 1_555 1_555
H39_3 N19_3 1_555 1_555
H40_3 N19_3 1_555 1_555
N19_3 H41_3 1_555 1_555
N18_3 H42_3 1_555 1_555
H5_3 C7_3 1_555 1_555
C22_3 C7_3 1_555 1_555
H20_3 C22_3 1_555 1_555
C29_3 C26_3 1_555 1_555
H27_3 C29_3 1_555 1_555
Ni1_3 C1_2 1_555 1_555
Ni2_4 C3_3 1_555 1_555
N1_2 C1_2 1_555 1_555
N4_3 C4_3 1_555 1_555
C3_3 N3_3 1_555 1_555
C4_3 Ni2_4 1_555 1_555
C6_3 C5_3 1_555 1_555
H3_3 C5_3 1_555 1_555
C18_2 Ni1_3 1_555 1_555
N9_3 C18_2 1_555 1_555
Cd5_2 N9_3 1_555 1_555
H6_3 C8_3 1_555 1_555
C20_3 Ni2_5 1_555 1_555
C21_3 Ni2_5 1_555 1_555
C23_3 C8_3 1_555 1_555
N17 C20_3 1_555 1_555
H19_3 C23_3 1_555 1_555
N5_3 Cd5_2 1_555 1_555
H1_3 N5_3 1_555 1_555
H2_3 N5_3 1_555 1_555
Ni2_6 C3_4 1_555 1_555
N4_4 C4_4 1_555 1_555
C3_4 N3_4 1_555 1_555
C4_4 Ni2_6 1_555 1_555
C6_4 C5_4 1_555 1_555
C8_4 C6_4 1_555 1_555
H3_4 C5_4 1_555 1_555
H6_4 C8_4 1_555 1_555
C20_4 Ni2_6 1_555 1_555
C21_4 Ni2_6 1_555 1_555
C23_4 C8_4 1_555 1_555
N9_4 C19_2 1_555 1_555
N17_2 C20_4 1_555 1_555
H19_4 C23_4 1_555 1_555
Cd5 N9_4 1_555 1_555
N5_4 Cd5 1_555 1_555
H1_4 N5_4 1_555 1_555
H2_4 N5_4 1_555 1_555
Cd4_2 N13_4 1_555 1_555
H31_4 N13_4 1_555 1_555
H32_4 N13_4 1_555 1_555
N16_4 Cd4_2 1_555 1_555
N18_4 Cd4_2 1_555 1_555
N19_4 Cd4_2 1_555 1_555
H37_4 N18_4 1_555 1_555
H39_4 N19_4 1_555 1_555
H40_4 N19_4 1_555 1_555
N19_4 H41_4 1_555 1_555
N18_4 H42_4 1_555 1_555
H5_4 C7_4 1_555 1_555
C22_4 C7_4 1_555 1_555
C26_4 C22_4 1_555 1_555
H20_4 C22_4 1_555 1_555
C29_4 C26_4 1_555 1_555
H27_4 C29_4 1_555 1_555
C30_3 C27_3 1_555 1_555
H23_3 C27_3 1_555 1_555
C32_3 C30_3 1_555 1_555
H29_3 C30_3 1_555 1_555
C33_3 C32_3 1_555 1_555
N18_4 C33_3 1_555 1_555
H33_3 C33_3 1_555 1_555
H34_3 C33_3 1_555 1_555
N7 H41_5 1_555 1_555
N6 H42_5 1_555 1_555
Ni3 C1_3 1_555 1_555
N15 C1_3 1_555 1_555
C2 N16 1_555 1_555
C9_3 N18 1_555 1_555
C10_3 C9_3 1_555 1_555
C11_3 C10_3 1_555 1_555
C12_3 C11_3 1_555 1_555
C13_3 C12_3 1_555 1_555
C14_3 C13_3 1_555 1_555
C15_3 C10_3 1_555 1_555
C16_3 N19 1_555 1_555
H9_3 C9_3 1_555 1_555
H10_3 C9_3 1_555 1_555
H11_3 C11_3 1_555 1_555
H12_3 C12_3 1_555 1_555
H13_3 C14_3 1_555 1_555
H14_3 C15_3 1_555 1_555
C17_3 Ni3 1_555 1_555
C24_3 C13_3 1_555 1_555
C25_3 C16_3 1_555 1_555
N15_2 C17_3 1_555 1_555
C28_3 C25_3 1_555 1_555
N19_4 C24_3 1_555 1_555
H21_3 C24_3 1_555 1_555
H22_3 C24_3 1_555 1_555
C31_3 C28_3 1_555 1_555
H24_3 C28_3 1_555 1_555
H30_3 C31_3 1_555 1_555
C14_3 C15_3 1_555 1_555
C30_4 C27_4 1_555 1_555
H23_4 C27_4 1_555 1_555
C32_4 C30_4 1_555 1_555
H29_4 C30_4 1_555 1_555
C33_4 C32_4 1_555 1_555
N18_3 C33_4 1_555 1_555
H33_4 C33_4 1_555 1_555
H34_4 C33_4 1_555 1_555
C19_3 N16_2 1_555 1_555
C9_4 N18_2 1_555 1_555
C10_4 C9_4 1_555 1_555
C11_4 C10_4 1_555 1_555
C12_4 C11_4 1_555 1_555
C13_4 C12_4 1_555 1_555
C14_4 C13_4 1_555 1_555
C15_4 C10_4 1_555 1_555
C16_4 N19_2 1_555 1_555
H9_4 C9_4 1_555 1_555
H10_4 C9_4 1_555 1_555
H11_4 C11_4 1_555 1_555
H12_4 C12_4 1_555 1_555
H13_4 C14_4 1_555 1_555
H14_4 C15_4 1_555 1_555
C24_4 C13_4 1_555 1_555
C25_4 C16_4 1_555 1_555
C28_4 C25_4 1_555 1_555
N19_3 C24_4 1_555 1_555
H21_4 C24_4 1_555 1_555
H22_4 C24_4 1_555 1_555
C31_4 C28_4 1_555 1_555
H24_4 C28_4 1_555 1_555
H30_4 C31_4 1_555 1_555
C14_4 C15_4 1_555 1_555
N7_2 H41_6 1_555 1_555
N6_2 H42_6 1_555 1_555
C2_2 N16_3 1_555 1_555
Ni3_2 C2_2 1_555 1_555
Ni3_2 C1_4 1_555 1_555
N15_3 C1_4 1_555 1_555
N12_2 H41_7 1_555 1_555
N14_2 H42_7 1_555 1_555
C17_4 Ni3_3 1_555 1_555
C19_4 Ni3_3 1_555 1_555
N15_4 C17_4 1_555 1_555
N12 H41_8 1_555 1_555
N14 H42_8 1_555 1_555
C19_4 N16_4 1_555 1_555

#END
