
###############################################################################
#
# This file contains modified crystal structure data generated from the
# MOF subset of the Cambridge Structural Database (CSD) v543 
# hosted by the Cambridge Crystallographic Data Centre (CCDC).
#
# This work is licensed under the Creative Commons
# Attribution-NonCommercial-ShareAlike 4.0 International License.
# To view a copy of this license, visit
# http://creativecommons.org/licenses/by-nc-sa/4.0/
# or send a letter to
# Creative Commons, PO Box 1866, Mountain View, CA 94042, USA.
#
# CIF created using the CSD Python API on 29 September 2022
# The structure has been converted into the P1 space group
# The structure has a 3D framework
# The original CSD entry ZUSBIA is in the orthorhombic crystal system
# The framework has been calculated to contain at least 10.0% void space
# The void calculation uses a probe of radius 1.32A, grid spacing 0.4
#
###############################################################################

data_ZUSBIA
_chemical_formula_moiety         '(C64 H40 N24 O16 Zn8)n'
_symmetry_cell_setting           triclinic
_symmetry_space_group_name_H-M   'P 1'
_symmetry_Int_Tables_number      1
_space_group_name_Hall           'P 1'
loop_
_symmetry_equiv_pos_site_id
_symmetry_equiv_pos_as_xyz
1 x,y,z
_cell_length_a                   10.0893(4)
_cell_length_b                   26.5212(11)
_cell_length_c                   9.7898(4)
_cell_angle_alpha                90
_cell_angle_beta                 90
_cell_angle_gamma                90
_cell_volume                     2619.56
loop_
_atom_site_label
_atom_site_type_symbol
_atom_site_fract_x
_atom_site_fract_y
_atom_site_fract_z
H3 H 0.0141 0.7065 0.2325
H8 H 0.0141 0.7935 0.2325
N7 N 0.0649(3) 0.97520(12) 0.1541(3)
N8 N 0.0649(3) 0.52480(12) 0.1541(3)
C15 C 0.7603(3) 0.00772(13) 0.3350(3)
H9 H 0.8357 0.0263 0.3559
N6 N 0.6521(3) 0.00718(11) 0.4104(3)
Zn6 Zn 0.61552(3) 0.044150(14) 0.58667(4)
Zn1 Zn 0.88448(3) 0.544150(14) 0.08667(4)
C1 C 0.8681(4) 0.64041(14) 0.1215(4)
C2 C 0.8527(4) 0.69693(14) 0.1184(4)
C3 C 0.7474(3) 0.72293(13) 0.0499(3)
C6 C 0.9478(4) 0.72365(14) 0.1857(4)
C7 C 0.7603(3) 0.49228(13) 0.3350(3)
H4 H 0.8357 0.4737 0.3559
C8 C 0.6258(3) 0.54080(14) 0.2367(4)
H5 H 0.5882 0.5630 0.1741
N1 N 0.7485(2) 0.52187(11) 0.2243(3)
N2 N 0.5649(3) 0.52480(12) 0.3459(3)
N3 N 0.6521(3) 0.49282(11) 0.4104(3)
O1 O 0.8307(3) 0.61376(10) 0.0219(3)
O2 O 0.9221(3) 0.62073(10) 0.2206(3)
C9 C 0.8681(4) 0.85959(14) 0.1215(4)
C10 C 0.8527(4) 0.80307(14) 0.1184(4)
C11 C 0.7474(3) 0.77707(13) 0.0499(3)
C14 C 0.9478(4) 0.77635(14) 0.1857(4)
O3 O 0.8307(3) 0.88624(10) 0.0219(3)
O4 O 0.9221(3) 0.87927(10) 0.2206(3)
Zn2 Zn 0.88448(3) 0.955850(14) 0.08667(4)
C16 C 0.6258(3) 0.95920(14) 0.2367(4)
H10 H 0.5882 0.9370 0.1741
N4 N 0.7485(2) 0.97813(11) 0.2243(3)
N5 N 0.5649(3) 0.97520(12) 0.3459(3)
Zn3 Zn 0.61552(3) 0.455850(14) 0.58667(4)
Zn4 Zn 0.38448(3) 0.955850(14) 0.41333(4)
Zn5 Zn 0.38448(3) 0.544150(14) 0.41333(4)
C4 C 0.6412(4) 0.69748(15) 0.9876(4)
H1 H 0.6393 0.6624 0.9876
C5 C 0.5410(4) 0.72371(17) 0.9270(5)
H2 H 0.4719 0.7064 0.8852
C12 C 0.6412(4) 0.80252(15) 0.9876(4)
H6 H 0.6393 0.8376 0.9876
C13 C 0.5410(4) 0.77629(17) 0.9270(5)
H7 H 0.4719 0.7936 0.8852
N9 N 0.8479(3) 0.50718(11) 0.9104(3)
N10 N 0.8479(3) 0.99282(11) 0.9104(3)
H2_2 H 0.0281 0.2936 0.3852
H7_2 H 0.0281 0.2064 0.3852
Zn4_2 Zn 0.11552(3) 0.044150(14) 0.91333(4)
Zn5_2 Zn 0.11552(3) 0.455850(14) 0.91333(4)
C1_2 C 0.6319(4) 0.35959(14) 0.6215(4)
C2_2 C 0.6473(4) 0.30307(14) 0.6184(4)
C3_2 C 0.7526(3) 0.27707(13) 0.5499(3)
C4_2 C 0.8588(4) 0.30252(15) 0.4876(4)
H1_2 H 0.8607 0.3376 0.4876
C5_2 C 0.9590(4) 0.27629(17) 0.4270(5)
C6_2 C 0.5522(4) 0.27635(14) 0.6857(4)
H3_2 H 0.4859 0.2935 0.7325
C7_2 C 0.7397(3) 0.50772(13) 0.8350(3)
H4_2 H 0.6643 0.5263 0.8559
C8_2 C 0.8742(3) 0.45920(14) 0.7367(4)
H5_2 H 0.9118 0.4370 0.6741
N1_2 N 0.7515(2) 0.47813(11) 0.7243(3)
N2_2 N 0.9351(3) 0.47520(12) 0.8459(3)
O1_2 O 0.6693(3) 0.38624(10) 0.5219(3)
O2_2 O 0.5779(3) 0.37927(10) 0.7206(3)
C9_2 C 0.6319(4) 0.14041(14) 0.6215(4)
C10_2 C 0.6473(4) 0.19693(14) 0.6184(4)
C11_2 C 0.7526(3) 0.22293(13) 0.5499(3)
C12_2 C 0.8588(4) 0.19748(15) 0.4876(4)
H6_2 H 0.8607 0.1624 0.4876
C13_2 C 0.9590(4) 0.22371(17) 0.4270(5)
C14_2 C 0.5522(4) 0.22365(14) 0.6857(4)
H8_2 H 0.4859 0.2065 0.7325
O3_2 O 0.6693(3) 0.11376(10) 0.5219(3)
O4_2 O 0.5779(3) 0.12073(10) 0.7206(3)
C16_2 C 0.8742(3) 0.04080(14) 0.7367(4)
H10_2 H 0.9118 0.0630 0.6741
N4_2 N 0.7515(2) 0.02187(11) 0.7243(3)
N5_2 N 0.9351(3) 0.02480(12) 0.8459(3)
N7_2 N 0.4351(3) 0.02480(12) 0.6541(3)
N8_2 N 0.4351(3) 0.47520(12) 0.6541(3)
C15_2 C 0.7397(3) 0.99228(13) 0.8350(3)
H9_2 H 0.6643 0.9737 0.8559
C4_3 C 0.3588(4) 0.19748(15) 0.0124(4)
H1_3 H 0.3607 0.1624 0.0124
C5_3 C 0.4590(4) 0.22371(17) 0.0730(5)
H2_3 H 0.5281 0.2064 0.1148
C12_3 C 0.3588(4) 0.30252(15) 0.0124(4)
H6_3 H 0.3607 0.3376 0.0124
C13_3 C 0.4590(4) 0.27629(17) 0.0730(5)
H7_3 H 0.5281 0.2936 0.1148
N9_2 N 0.1521(3) 0.00718(11) 0.0896(3)
N10_2 N 0.1521(3) 0.49282(11) 0.0896(3)
C1_3 C 0.1319(4) 0.14041(14) 0.8785(4)
C2_3 C 0.1473(4) 0.19693(14) 0.8816(4)
C3_3 C 0.2526(3) 0.22293(13) 0.9501(3)
C6_3 C 0.0522(4) 0.22365(14) 0.8143(4)
C8_3 C 0.3742(3) 0.04080(14) 0.7633(4)
H5_3 H 0.4118 0.0630 0.8259
N1_3 N 0.2515(2) 0.02187(11) 0.7757(3)
O1_3 O 0.1693(3) 0.11376(10) 0.9781(3)
O2_3 O 0.0779(3) 0.12073(10) 0.7794(3)
C9_3 C 0.1319(4) 0.35959(14) 0.8785(4)
C10_3 C 0.1473(4) 0.30307(14) 0.8816(4)
C11_3 C 0.2526(3) 0.27707(13) 0.9501(3)
C14_3 C 0.0522(4) 0.27635(14) 0.8143(4)
O3_3 O 0.1693(3) 0.38624(10) 0.9781(3)
O4_3 O 0.0779(3) 0.37927(10) 0.7794(3)
C15_3 C 0.2397(3) 0.50772(13) 0.6650(3)
H9_3 H 0.1643 0.5263 0.6441
C16_3 C 0.3742(3) 0.45920(14) 0.7633(4)
H10_3 H 0.4118 0.4370 0.8259
N4_3 N 0.2515(2) 0.47813(11) 0.7757(3)
N6_2 N 0.3479(3) 0.50718(11) 0.5896(3)
C7_3 C 0.2397(3) 0.99228(13) 0.6650(3)
H4_3 H 0.1643 0.9737 0.6441
N3_2 N 0.3479(3) 0.99282(11) 0.5896(3)
H3_3 H 0.9859 0.2065 0.7675
H8_3 H 0.9859 0.2935 0.7675
C7_4 C 0.2603(3) 0.00772(13) 0.1650(3)
H4_4 H 0.3357 0.0263 0.1441
C1_4 C 0.3681(4) 0.85959(14) 0.3785(4)
C2_4 C 0.3527(4) 0.80307(14) 0.3816(4)
C3_4 C 0.2474(3) 0.77707(13) 0.4501(3)
C4_4 C 0.1412(4) 0.80252(15) 0.5124(4)
H1_4 H 0.1393 0.8376 0.5124
C5_4 C 0.0410(4) 0.77629(17) 0.5730(5)
C6_4 C 0.4478(4) 0.77635(14) 0.3143(4)
H3_4 H 0.5141 0.7935 0.2675
C8_4 C 0.1258(3) 0.95920(14) 0.2633(4)
H5_4 H 0.0882 0.9370 0.3259
N1_4 N 0.2485(2) 0.97813(11) 0.2757(3)
O1_4 O 0.3307(3) 0.88624(10) 0.4781(3)
O2_4 O 0.4221(3) 0.87927(10) 0.2794(3)
C9_4 C 0.3681(4) 0.64041(14) 0.3785(4)
C10_4 C 0.3527(4) 0.69693(14) 0.3816(4)
C11_4 C 0.2474(3) 0.72293(13) 0.4501(3)
C12_4 C 0.1412(4) 0.69748(15) 0.5124(4)
H6_4 H 0.1393 0.6624 0.5124
C13_4 C 0.0410(4) 0.72371(17) 0.5730(5)
C14_4 C 0.4478(4) 0.72365(14) 0.3143(4)
H8_4 H 0.5141 0.7065 0.2675
O3_4 O 0.3307(3) 0.61376(10) 0.4781(3)
O4_4 O 0.4221(3) 0.62073(10) 0.2794(3)
C15_4 C 0.2603(3) 0.49228(13) 0.1650(3)
H9_4 H 0.3357 0.4737 0.1441
C16_4 C 0.1258(3) 0.54080(14) 0.2633(4)
H10_4 H 0.0882 0.5630 0.3259
N4_4 N 0.2485(2) 0.52187(11) 0.2757(3)
H2_4 H 0.9719 0.7936 0.6148
H7_4 H 0.9719 0.7064 0.6148
loop_
_geom_bond_atom_site_label_1
_geom_bond_atom_site_label_2
_geom_bond_site_symmetry_1
_geom_bond_site_symmetry_2
C15 H9 1_555 1_555
N6 C15 1_555 1_555
Zn6 N6 1_555 1_555
Zn1 N1 1_555 1_555
C1 C2 1_555 1_555
C2 C3 1_555 1_555
C6 C2 1_555 1_555
C7 H4 1_555 1_555
C8 H5 1_555 1_555
N1 C7 1_555 1_555
N2 C8 1_555 1_555
N3 C7 1_555 1_555
O1 Zn1 1_555 1_555
O2 Zn1 1_555 1_555
C9 C10 1_555 1_555
C10 C11 1_555 1_555
C11 C3 1_555 1_555
C14 C6 1_555 1_555
O3 C9 1_555 1_555
O4 C9 1_555 1_555
Zn2 O3 1_555 1_555
C16 H10 1_555 1_555
N4 Zn2 1_555 1_555
N5 C16 1_555 1_555
Zn3 N3 1_555 1_555
Zn4 N5 1_555 1_555
Zn5 N2 1_555 1_555
C1 O1 1_555 1_555
C1 O2 1_555 1_555
C8 N1 1_555 1_555
N2 N3 1_555 1_555
C10 C14 1_555 1_555
O4 Zn2 1_555 1_555
C16 N4 1_555 1_555
C4 H1 1_555 1_555
C5 C4 1_555 1_555
H2 C5 1_555 1_555
H6 C12 1_555 1_555
C13 C5 1_555 1_555
H7 C13 1_555 1_555
C12 C13 1_555 1_555
Zn3 N1_2 1_555 1_555
C1_2 C2_2 1_555 1_555
C2_2 C3_2 1_555 1_555
C3_2 C4_2 1_555 1_555
C4_2 H1_2 1_555 1_555
C5_2 C4_2 1_555 1_555
C6_2 C2_2 1_555 1_555
H3_2 C6_2 1_555 1_555
C7_2 H4_2 1_555 1_555
C8_2 H5_2 1_555 1_555
N1_2 C7_2 1_555 1_555
N2_2 C8_2 1_555 1_555
N9 C7_2 1_555 1_555
O1_2 Zn3 1_555 1_555
O2_2 Zn3 1_555 1_555
C9_2 C10_2 1_555 1_555
C10_2 C11_2 1_555 1_555
C11_2 C3_2 1_555 1_555
C12_2 C11_2 1_555 1_555
H6_2 C12_2 1_555 1_555
C13_2 C5_2 1_555 1_555
C14_2 C6_2 1_555 1_555
H8_2 C14_2 1_555 1_555
O3_2 C9_2 1_555 1_555
O4_2 C9_2 1_555 1_555
Zn6 O3_2 1_555 1_555
C16_2 H10_2 1_555 1_555
N4_2 Zn6 1_555 1_555
N5_2 C16_2 1_555 1_555
N7_2 Zn6 1_555 1_555
N8_2 Zn3 1_555 1_555
C1_2 O1_2 1_555 1_555
C1_2 O2_2 1_555 1_555
C8_2 N1_2 1_555 1_555
N2_2 N9 1_555 1_555
C10_2 C14_2 1_555 1_555
C12_2 C13_2 1_555 1_555
O4_2 Zn6 1_555 1_555
C16_2 N4_2 1_555 1_555
C15_2 H9_2 1_555 1_555
N10 C15_2 1_555 1_555
C4_3 H1_3 1_555 1_555
C5_3 C4_3 1_555 1_555
H2_3 C5_3 1_555 1_555
H6_3 C12_3 1_555 1_555
C13_3 C5_3 1_555 1_555
H7_3 C13_3 1_555 1_555
C12_3 C13_3 1_555 1_555
Zn4_2 N1_3 1_555 1_555
C1_3 C2_3 1_555 1_555
C2_3 C3_3 1_555 1_555
C6_3 C2_3 1_555 1_555
C8_3 H5_3 1_555 1_555
N7_2 C8_3 1_555 1_555
O1_3 Zn4_2 1_555 1_555
O2_3 Zn4_2 1_555 1_555
C9_3 C10_3 1_555 1_555
C10_3 C11_3 1_555 1_555
C11_3 C3_3 1_555 1_555
C14_3 C6_3 1_555 1_555
O3_3 C9_3 1_555 1_555
O4_3 C9_3 1_555 1_555
Zn5_2 O3_3 1_555 1_555
C15_3 H9_3 1_555 1_555
C16_3 H10_3 1_555 1_555
N4_3 Zn5_2 1_555 1_555
N8_2 C16_3 1_555 1_555
N6_2 C15_3 1_555 1_555
Zn5 N6_2 1_555 1_555
C1_3 O1_3 1_555 1_555
C1_3 O2_3 1_555 1_555
C8_3 N1_3 1_555 1_555
C10_3 C14_3 1_555 1_555
O4_3 Zn5_2 1_555 1_555
C15_3 N4_3 1_555 1_555
C16_3 N4_3 1_555 1_555
N8_2 N6_2 1_555 1_555
C7_3 H4_3 1_555 1_555
N3_2 C7_3 1_555 1_555
Zn4 N3_2 1_555 1_555
C7_4 H4_4 1_555 1_555
N9_2 C7_4 1_555 1_555
Zn4 N1_4 1_555 1_555
C1_4 C2_4 1_555 1_555
C2_4 C3_4 1_555 1_555
C3_4 C4_4 1_555 1_555
C4_4 H1_4 1_555 1_555
C5_4 C4_4 1_555 1_555
C6_4 C2_4 1_555 1_555
H3_4 C6_4 1_555 1_555
C8_4 H5_4 1_555 1_555
N7 C8_4 1_555 1_555
O1_4 Zn4 1_555 1_555
O2_4 Zn4 1_555 1_555
C9_4 C10_4 1_555 1_555
C10_4 C11_4 1_555 1_555
C11_4 C3_4 1_555 1_555
C12_4 C11_4 1_555 1_555
H6_4 C12_4 1_555 1_555
C13_4 C5_4 1_555 1_555
C14_4 C6_4 1_555 1_555
H8_4 C14_4 1_555 1_555
O3_4 C9_4 1_555 1_555
O4_4 C9_4 1_555 1_555
Zn5 O3_4 1_555 1_555
C15_4 H9_4 1_555 1_555
C16_4 H10_4 1_555 1_555
N4_4 Zn5 1_555 1_555
N8 C16_4 1_555 1_555
N10_2 C15_4 1_555 1_555
C1_4 O1_4 1_555 1_555
C1_4 O2_4 1_555 1_555
C8_4 N1_4 1_555 1_555
C10_4 C14_4 1_555 1_555
C12_4 C13_4 1_555 1_555
O4_4 Zn5 1_555 1_555
C15_4 N4_4 1_555 1_555
C16_4 N4_4 1_555 1_555
N8 N10_2 1_555 1_555

#END
