
###############################################################################
#
# This file contains modified crystal structure data generated from the
# MOF subset of the Cambridge Structural Database (CSD) v543 
# hosted by the Cambridge Crystallographic Data Centre (CCDC).
#
# This work is licensed under the Creative Commons
# Attribution-NonCommercial-ShareAlike 4.0 International License.
# To view a copy of this license, visit
# http://creativecommons.org/licenses/by-nc-sa/4.0/
# or send a letter to
# Creative Commons, PO Box 1866, Mountain View, CA 94042, USA.
#
# CIF created using the CSD Python API on 29 September 2022
# The structure has been converted into the P1 space group
# The structure has a 3D framework
# The original CSD entry ZUSBOG is in the monoclinic crystal system
# The framework has been calculated to contain at least 10.0% void space
# The void calculation uses a probe of radius 1.32A, grid spacing 0.4
#
###############################################################################

data_ZUSBOG
_chemical_formula_moiety         '(C32 H20 N12 O8 Zn4)n'
_symmetry_cell_setting           triclinic
_symmetry_space_group_name_H-M   'P 1'
_symmetry_Int_Tables_number      1
_space_group_name_Hall           'P 1'
loop_
_symmetry_equiv_pos_site_id
_symmetry_equiv_pos_as_xyz
1 x,y,z
_cell_length_a                   14.7367(5)
_cell_length_b                   9.5763(4)
_cell_length_c                   9.8920(3)
_cell_angle_alpha                90
_cell_angle_beta                 101.474(3)
_cell_angle_gamma                90
_cell_volume                     1368.09
loop_
_atom_site_label
_atom_site_type_symbol
_atom_site_fract_x
_atom_site_fract_y
_atom_site_fract_z
C11 C 0.6274(3) 0.0086(6) 0.0684(5)
H6 H 0.6796 0.0500 0.0462
C15 C 0.9945(3) 0.1674(5) 0.2324(5)
H9 H 0.9574 0.1506 0.1463
N4 N 0.9938(3) 0.0902(4) 0.3404(4)
Zn1 Zn 0.08728(3) 0.07361(5) 0.63678(5)
C1 C 0.2678(3) 0.0964(6) 0.7274(6)
C2 C 0.3633(3) 0.0731(6) 0.8190(5)
C5 C 0.4407(4) 0.1404(7) 0.7849(6)
H2 H 0.4335 0.1991 0.7085
O1 O 0.2061(2) 0.0094(4) 0.7444(4)
O2 O 0.2550(3) 0.1942(5) 0.6480(4)
C8 C 0.5262(4) 0.1189(7) 0.8645(6)
H5 H 0.5774 0.1619 0.8407
C12 C 0.5388(3) 0.0327(6) 0.9825(5)
C16 C 0.0923(3) 0.2565(5) 0.3914(4)
H10 H 0.1376 0.3150 0.4405
N5 N 0.0587(3) 0.1477(4) 0.4455(4)
N6 N 0.0545(3) 0.2738(4) 0.2583(4)
Zn5 Zn 0.08728(3) 0.42639(5) 0.13678(5)
N7 N 0.0545(3) 0.2262(4) 0.7583(4)
C4 C 0.4612(3) 0.9673(6) 0.0175(5)
C9 C 0.7322(3) 0.9036(6) 0.2726(6)
C10 C 0.6367(3) 0.9269(6) 0.1810(5)
C13 C 0.5593(4) 0.8596(7) 0.2151(6)
H7 H 0.5665 0.8009 0.2915
O3 O 0.7939(2) 0.9906(4) 0.2556(4)
O4 O 0.7450(3) 0.8058(5) 0.3520(4)
C14 C 0.4738(4) 0.8811(7) 0.1355(6)
H8 H 0.4226 0.8381 0.1593
Zn4 Zn 0.91272(3) 0.92639(5) 0.36322(5)
C7 C 0.9077(3) 0.7435(5) 0.6086(4)
H4 H 0.8624 0.6850 0.5595
N2 N 0.9413(3) 0.8523(4) 0.5545(4)
N3 N 0.9455(3) 0.7262(4) 0.7417(4)
Zn3 Zn 0.91272(3) 0.57361(5) 0.86322(5)
N8 N 0.9455(3) 0.7738(4) 0.2417(4)
C15_2 C 0.0055(3) 0.6674(5) 0.2676(5)
H9_2 H 0.0426 0.6506 0.3537
N4_2 N 0.0062(3) 0.5902(4) 0.1596(4)
O5 O 0.2061(2) 0.4906(4) 0.2444(4)
C7_2 C 0.0923(3) 0.2435(5) 0.8914(4)
H4_2 H 0.1376 0.1850 0.9405
N2_2 N 0.0587(3) 0.3523(4) 0.9455(4)
C16_2 C 0.9077(3) 0.7565(5) 0.1086(4)
H10_2 H 0.8624 0.8150 0.0595
N5_2 N 0.9413(3) 0.6477(4) 0.0545(4)
C1_2 C 0.7322(3) 0.5964(6) 0.7726(6)
C2_2 C 0.6367(3) 0.5731(6) 0.6810(5)
C3 C 0.6274(3) 0.4914(6) 0.5684(5)
H1 H 0.6796 0.4500 0.5462
C4_2 C 0.5388(3) 0.4673(6) 0.4825(5)
C5_2 C 0.5593(4) 0.6404(7) 0.7151(6)
H2_2 H 0.5665 0.6991 0.7915
C6 C 0.9945(3) 0.3326(5) 0.7324(5)
H3 H 0.9574 0.3494 0.6463
N1 N 0.9938(3) 0.4098(4) 0.8404(4)
O1_2 O 0.7939(2) 0.5094(4) 0.7556(4)
O2_2 O 0.7450(3) 0.6942(5) 0.8520(4)
C8_2 C 0.4738(4) 0.6189(7) 0.6355(6)
H5_2 H 0.4226 0.6619 0.6593
C9_2 C 0.2678(3) 0.4036(6) 0.2274(6)
C10_2 C 0.3633(3) 0.4269(6) 0.3190(5)
C11_2 C 0.3726(3) 0.5086(6) 0.4316(5)
H6_2 H 0.3204 0.5500 0.4538
C12_2 C 0.4612(3) 0.5327(6) 0.5175(5)
C13_2 C 0.4407(4) 0.3596(7) 0.2849(6)
H7_2 H 0.4335 0.3009 0.2085
O4_2 O 0.2550(3) 0.3058(5) 0.1480(4)
C14_2 C 0.5262(4) 0.3811(7) 0.3645(6)
H8_2 H 0.5774 0.3381 0.3407
C3_2 C 0.3726(3) 0.9914(6) 0.9316(5)
H1_2 H 0.3204 0.9500 0.9538
C6_2 C 0.0055(3) 0.8326(5) 0.7676(5)
H3_2 H 0.0426 0.8494 0.8537
N1_2 N 0.0062(3) 0.9098(4) 0.6596(4)
loop_
_geom_bond_atom_site_label_1
_geom_bond_atom_site_label_2
_geom_bond_site_symmetry_1
_geom_bond_site_symmetry_2
C11 H6 1_555 1_555
C15 H9 1_555 1_555
C15 N4 1_555 1_555
C1 C2 1_555 1_555
C5 C2 1_555 1_555
H2 C5 1_555 1_555
O1 Zn1 1_555 1_555
O2 C1 1_555 1_555
C8 C5 1_555 1_555
H5 C8 1_555 1_555
C16 H10 1_555 1_555
N5 Zn1 1_555 1_555
Zn5 N6 1_555 1_555
N7 Zn1 1_555 1_555
C1 O1 1_555 1_555
C8 C12 1_555 1_555
C16 N5 1_555 1_555
C16 N6 1_555 1_555
C9 C10 1_555 1_555
C13 C10 1_555 1_555
H7 C13 1_555 1_555
O3 C9 1_555 1_555
O4 C9 1_555 1_555
C14 C4 1_555 1_555
H8 C14 1_555 1_555
Zn4 O3 1_555 1_555
C13 C14 1_555 1_555
C7 H4 1_555 1_555
N2 C7 1_555 1_555
Zn4 N2 1_555 1_555
Zn3 N3 1_555 1_555
N8 Zn4 1_555 1_555
C7 N3 1_555 1_555
C15_2 H9_2 1_555 1_555
N4_2 Zn5 1_555 1_555
O5 Zn5 1_555 1_555
C15_2 N4_2 1_555 1_555
C7_2 H4_2 1_555 1_555
N2_2 C7_2 1_555 1_555
C7_2 N7 1_555 1_555
C16_2 H10_2 1_555 1_555
C16_2 N5_2 1_555 1_555
C16_2 N8 1_555 1_555
Zn3 N1 1_555 1_555
C1_2 C2_2 1_555 1_555
C2_2 C3 1_555 1_555
C3 H1 1_555 1_555
C4_2 C3 1_555 1_555
C5_2 C2_2 1_555 1_555
H2_2 C5_2 1_555 1_555
C6 H3 1_555 1_555
N1 C6 1_555 1_555
O1_2 Zn3 1_555 1_555
O2_2 C1_2 1_555 1_555
C8_2 C5_2 1_555 1_555
H5_2 C8_2 1_555 1_555
C9_2 C10_2 1_555 1_555
C10_2 C11_2 1_555 1_555
C11_2 H6_2 1_555 1_555
C12_2 C4_2 1_555 1_555
C13_2 C10_2 1_555 1_555
H7_2 C13_2 1_555 1_555
O5 C9_2 1_555 1_555
O4_2 C9_2 1_555 1_555
C14_2 C4_2 1_555 1_555
H8_2 C14_2 1_555 1_555
C1_2 O1_2 1_555 1_555
C8_2 C12_2 1_555 1_555
C11_2 C12_2 1_555 1_555
C13_2 C14_2 1_555 1_555
C3_2 H1_2 1_555 1_555
C6_2 H3_2 1_555 1_555
N1_2 C6_2 1_555 1_555

#END
