
###############################################################################
#
# This file contains modified crystal structure data generated from the
# MOF subset of the Cambridge Structural Database (CSD) v543 
# hosted by the Cambridge Crystallographic Data Centre (CCDC).
#
# This work is licensed under the Creative Commons
# Attribution-NonCommercial-ShareAlike 4.0 International License.
# To view a copy of this license, visit
# http://creativecommons.org/licenses/by-nc-sa/4.0/
# or send a letter to
# Creative Commons, PO Box 1866, Mountain View, CA 94042, USA.
#
# CIF created using the CSD Python API on 29 September 2022
# The structure has been converted into the P1 space group
# The structure has a 3D framework
# The original CSD entry ZUSCOI is in the triclinic crystal system
# The framework has been calculated to contain at least 10.0% void space
# The void calculation uses a probe of radius 1.32A, grid spacing 0.4
# The framework is charged, counterions have been retained in the structure
#
###############################################################################

data_ZUSCOI
_chemical_formula_moiety         '(C84 H44 Cd8 O14 2-)n'
_symmetry_cell_setting           triclinic
_symmetry_space_group_name_H-M   'P 1'
_symmetry_Int_Tables_number      1
_space_group_name_Hall           'P 1'
loop_
_symmetry_equiv_pos_site_id
_symmetry_equiv_pos_as_xyz
1 x,y,z
_cell_length_a                   13.4594(3)
_cell_length_b                   17.2712(4)
_cell_length_c                   17.7349(4)
_cell_angle_alpha                61.602(2)
_cell_angle_beta                 70.240(2)
_cell_angle_gamma                79.748(2)
_cell_volume                     3412.28
loop_
_atom_site_label
_atom_site_type_symbol
_atom_site_fract_x
_atom_site_fract_y
_atom_site_fract_z
Cd12 Cd -0.000000 0.000000 0.000000
O9 O 0.1437(2) 0.00462(14) 0.74935(15)
O10 O 0.01131(17) 0.00079(12) 0.86521(13)
Cd9 Cd 0.05616(2) 0.14009(2) 0.75747(2)
Cd12_2 Cd -0.000000 0.000000 1.000000
O4 O 0.1217(2) 0.22901(17) 0.60871(16)
C6 C 0.0389(3) 0.26227(19) 0.0461(2)
H3 H 0.101449 0.289235 0.000355
C7 C 0.0247(3) 0.17379(19) 0.0776(2)
H4 H 0.076575 0.140679 0.052452
C10 C 0.0003(3) 0.39167(19) 0.1803(2)
C11 C 0.0235(3) 0.4261(2) 0.2278(2)
C12 C 0.0445(3) 0.5179(2) 0.1857(2)
H6 H 0.060115 0.542108 0.218419
C13 C 0.0426(3) 0.57091(19) 0.1007(2)
H7 H 0.057145 0.631618 0.074770
C14 C 0.0192(2) 0.53743(18) 0.04914(19)
C15 C 0.0302(3) 0.3697(2) 0.3201(2)
C18 C 0.0431(3) 0.2663(2) 0.4946(2)
C19 C 0.1142(3) 0.3324(2) 0.4341(2)
H10 H 0.168325 0.342503 0.451334
C20 C 0.1062(3) 0.3838(2) 0.3481(2)
H11 H 0.154419 0.430158 0.307182
C21 C 0.0471(4) 0.2155(2) 0.5896(2)
Cd12_3 Cd -0.000000 1.000000 0.000000
O11 O 0.0249(2) 0.83712(18) 0.35279(17)
C43 C 0.0759(3) 0.96292(18) 0.8205(2)
C44 C 0.0639(2) 0.86632(17) 0.85511(19)
C45 C 0.1388(3) 0.81810(19) 0.8189(2)
H23 H 0.199418 0.846211 0.771037
C46 C 0.1261(3) 0.72829(18) 0.8520(2)
H24 H 0.178996 0.694909 0.828032
C47 C 0.0364(2) 0.68776(17) 0.91986(19)
C50 C 0.0206(2) 0.59163(17) 0.95934(19)
C51 C 0.0018(2) 0.55525(17) 0.9096(2)
H27 H 0.014841 0.669135 0.791711
C58 C 0.0389(3) 0.6976(2) 0.6189(2)
H30 H 0.091544 0.708900 0.636868
C59 C 0.0336(3) 0.7492(2) 0.5323(2)
H31 H 0.082405 0.795109 0.491309
Cd12_4 Cd 0.000000 1.000000 1.000000
O28 O 0.14950(19) 0.08578(15) 0.92840(16)
O25 O 0.0780(2) 0.79675(17) 0.17794(18)
O26 O 0.1025(2) 0.88233(15) 0.03170(16)
Cd12_5 Cd 1.000000 0.000000 0.000000
Cd12_6 Cd 1.000000 0.000000 1.000000
O3 O 0.9751(2) 0.16288(18) 0.64721(17)
C1 C 0.9241(3) 0.03708(18) 0.1795(2)
C2 C 0.9361(2) 0.13368(17) 0.14489(19)
C3 C 0.8612(3) 0.18190(19) 0.1811(2)
H1 H 0.800582 0.153789 0.228963
C4 C 0.8739(3) 0.27171(18) 0.1480(2)
H2 H 0.821004 0.305091 0.171968
C5 C 0.9636(2) 0.31224(17) 0.08014(19)
C8 C 0.9794(2) 0.40837(17) 0.04066(19)
C9 C 0.9982(2) 0.44475(17) 0.0904(2)
H5 H 0.985159 0.330865 0.208289
C16 C 0.9611(3) 0.3024(2) 0.3811(2)
H8 H 0.908456 0.291100 0.363132
C17 C 0.9664(3) 0.2508(2) 0.4677(2)
H9 H 0.917595 0.204891 0.508691
C27 C 0.6780(3) 0.2953(2) 0.0299(3)
H14 H 0.644996 0.284106 0.090559
C28 C 0.7514(3) 0.2354(2) 0.0101(2)
H15 H 0.768103 0.183373 0.057483
O15 O 0.8296(2) 0.81122(18) 0.21400(17)
O16 O 0.85050(19) 0.91422(15) 0.07160(16)
C64 C 0.1192(3) 0.8152(2) 0.0972(2)
C65 C 0.1999(3) 0.7500(2) 0.0766(2)
C66 C 0.2251(3) 0.6738(2) 0.1447(2)
H34 H 0.191373 0.662417 0.205398
C67 C 0.2992(3) 0.6138(2) 0.1253(2)
H35 H 0.316475 0.562099 0.172636
C68 C 0.3474(3) 0.6286(2) 0.0384(2)
C71 C 0.4261(3) 0.5635(2) 0.0171(3)
C72 C 0.5268(3) 0.5545(2) 0.0292(2)
C73 C 0.5578(3) 0.6104(2) 0.0558(2)
H38 H 0.509594 0.654242 0.065795
C74 C 0.6548(3) 0.6023(2) 0.0671(2)
C75 C 0.7275(3) 0.5360(2) 0.0526(2)
H39 H 0.794399 0.528518 0.062548
C76 C 0.7016(3) 0.4839(2) 0.0247(3)
H40 H 0.752046 0.441911 0.013019
C77 C 0.6002(3) 0.4901(2) 0.0124(2)
C78 C 0.6889(3) 0.6632(2) 0.0908(2)
C79 C 0.7445(3) 0.6312(2) 0.1533(2)
H41 H 0.758055 0.569728 0.183408
C80 C 0.7805(3) 0.6889(2) 0.1718(2)
H42 H 0.814341 0.666209 0.217505
C81 C 0.7678(3) 0.7786(2) 0.1247(2)
C82 C 0.7119(3) 0.8109(2) 0.0624(3)
H43 H 0.701520 0.872554 0.030251
C83 C 0.6714(3) 0.7534(2) 0.0469(3)
H44 H 0.631132 0.775928 0.005684
C84 C 0.8215(3) 0.8400(2) 0.1366(3)
Cd6 Cd 0.94384(2) 0.85991(2) 0.24253(2)
Cd12_7 Cd 1.000000 1.000000 0.000000
O5 O 0.9220(2) 0.20325(17) 0.82206(18)
O6 O 0.8975(2) 0.11767(15) 0.96830(16)
O7 O 0.1704(2) 0.18878(18) 0.78600(17)
C22 C 0.8808(3) 0.1848(2) 0.9028(2)
C23 C 0.8001(3) 0.2500(2) 0.9234(2)
C24 C 0.7749(3) 0.3262(2) 0.8553(2)
H12 H 0.808627 0.337583 0.794602
C25 C 0.7008(3) 0.3862(2) 0.8747(2)
H13 H 0.683525 0.437901 0.827364
C26 C 0.6526(3) 0.3714(2) 0.9616(2)
C29 C 0.5739(3) 0.4365(2) 0.9829(3)
C30 C 0.4732(3) 0.4455(2) 0.9708(2)
C31 C 0.4422(3) 0.3896(2) 0.9442(2)
H16 H 0.490406 0.345758 0.934205
C32 C 0.3452(3) 0.3977(2) 0.9329(2)
C33 C 0.2725(3) 0.4640(2) 0.9474(2)
H17 H 0.205601 0.471482 0.937452
C34 C 0.2984(3) 0.5161(2) 0.9753(3)
H18 H 0.247954 0.558089 0.986981
C35 C 0.3998(3) 0.5099(2) 0.9876(2)
C36 C 0.3111(3) 0.3368(2) 0.9092(2)
C37 C 0.2555(3) 0.3688(2) 0.8467(2)
H19 H 0.241945 0.430272 0.816592
C38 C 0.2195(3) 0.3111(2) 0.8282(2)
H20 H 0.185659 0.333791 0.782495
C39 C 0.2322(3) 0.2214(2) 0.8753(2)
C40 C 0.2881(3) 0.1891(2) 0.9376(3)
H21 H 0.298480 0.127446 0.969749
C41 C 0.3286(3) 0.2466(2) 0.9531(3)
H22 H 0.368868 0.224072 0.994316
C42 C 0.1785(3) 0.1600(2) 0.8634(3)
O12 O 0.8783(2) 0.77099(17) 0.39129(16)
C48 C 0.9611(3) 0.73773(19) 0.9539(2)
H25 H 0.898551 0.710765 0.999645
C49 C 0.9753(3) 0.82621(19) 0.9224(2)
H26 H 0.923425 0.859321 0.947548
C52 C 0.9997(3) 0.60833(19) 0.8197(2)
C53 C 0.9765(3) 0.5739(2) 0.7722(2)
C54 C 0.9555(3) 0.4821(2) 0.8143(2)
H28 H 0.939885 0.457892 0.781581
C55 C 0.9574(3) 0.42909(19) 0.8993(2)
H29 H 0.942855 0.368382 0.925230
C56 C 0.9808(2) 0.46257(18) 0.95086(19)
C57 C 0.9698(3) 0.6303(2) 0.6799(2)
C60 C 0.9569(3) 0.7337(2) 0.5054(2)
C61 C 0.8858(3) 0.6676(2) 0.5659(2)
H32 H 0.831675 0.657497 0.548666
C62 C 0.8938(3) 0.6162(2) 0.6519(2)
H33 H 0.845581 0.569842 0.692818
C63 C 0.9529(4) 0.7845(2) 0.4104(2)
C69 C 0.3220(3) 0.7047(2) 0.9701(3)
H36 H 0.355004 0.715894 0.909441
C70 C 0.2486(3) 0.7646(2) 0.9899(2)
H37 H 0.231897 0.816627 0.942517
Cd12_8 Cd 1.000000 1.000000 1.000000
O1 O 0.8563(2) 0.99538(14) 0.25065(15)
O2 O 0.98869(17) 0.99921(12) 0.13479(13)
loop_
_geom_bond_atom_site_label_1
_geom_bond_atom_site_label_2
_geom_bond_site_symmetry_1
_geom_bond_site_symmetry_2
Cd9 O9 1_555 1_555
Cd12_2 O10 1_555 1_555
O10 Cd9 1_555 1_555
O4 C21 1_555 1_555
H3 C6 1_555 1_555
H4 C7 1_555 1_555
C11 C10 1_555 1_555
C12 C11 1_555 1_555
H6 C12 1_555 1_555
C13 C12 1_555 1_555
H7 C13 1_555 1_555
C15 C11 1_555 1_555
C19 C18 1_555 1_555
H10 C19 1_555 1_555
C20 C15 1_555 1_555
H11 C20 1_555 1_555
C21 C18 1_555 1_555
O4 Cd9 1_555 1_555
C6 C7 1_555 1_555
C13 C14 1_555 1_555
C19 C20 1_555 1_555
C43 C44 1_555 1_555
C44 C45 1_555 1_555
C45 H23 1_555 1_555
C46 C45 1_555 1_555
H24 C46 1_555 1_555
C47 C46 1_555 1_555
C51 C50 1_555 1_555
H30 C58 1_555 1_555
C59 C58 1_555 1_555
H31 C59 1_555 1_555
O28 Cd12_2 1_555 1_555
C47 C50 1_555 1_555
O26 Cd12_3 1_555 1_555
C2 C1 1_555 1_555
C3 C2 1_555 1_555
H1 C3 1_555 1_555
C4 C3 1_555 1_555
H2 C4 1_555 1_555
C5 C4 1_555 1_555
C8 C5 1_555 1_555
C9 C8 1_555 1_555
H8 C16 1_555 1_555
C17 C16 1_555 1_555
H9 C17 1_555 1_555
H14 C27 1_555 1_555
H15 C28 1_555 1_555
O25 C64 1_555 1_555
O26 C64 1_555 1_555
O15 C84 1_555 1_555
O16 C84 1_555 1_555
C64 C65 1_555 1_555
C65 C66 1_555 1_555
C66 H34 1_555 1_555
C67 C66 1_555 1_555
H35 C67 1_555 1_555
C68 C67 1_555 1_555
C72 C71 1_555 1_555
C73 C72 1_555 1_555
H38 C73 1_555 1_555
C74 C73 1_555 1_555
C75 C74 1_555 1_555
H39 C75 1_555 1_555
C76 C75 1_555 1_555
H40 C76 1_555 1_555
C78 C74 1_555 1_555
C79 C78 1_555 1_555
H41 C79 1_555 1_555
C80 C79 1_555 1_555
H42 C80 1_555 1_555
C81 C80 1_555 1_555
C82 C81 1_555 1_555
H43 C82 1_555 1_555
C83 C78 1_555 1_555
H44 C83 1_555 1_555
C84 C81 1_555 1_555
Cd6 O15 1_555 1_555
C27 C28 1_555 1_555
O16 Cd12_7 1_555 1_555
C68 C71 1_555 1_555
C72 C77 1_555 1_555
C76 C77 1_555 1_555
C82 C83 1_555 1_555
O5 C22 1_555 1_555
O6 Cd12_6 1_555 1_555
O7 C42 1_555 1_555
O28 C42 1_555 1_555
C22 O6 1_555 1_555
C23 C22 1_555 1_555
C24 C23 1_555 1_555
H12 C24 1_555 1_555
C25 C24 1_555 1_555
H13 C25 1_555 1_555
C26 C25 1_555 1_555
C29 C26 1_555 1_555
C30 C29 1_555 1_555
C31 C30 1_555 1_555
H16 C31 1_555 1_555
C32 C31 1_555 1_555
C33 C32 1_555 1_555
H17 C33 1_555 1_555
C34 C33 1_555 1_555
H18 C34 1_555 1_555
C35 C30 1_555 1_555
C36 C32 1_555 1_555
C37 C36 1_555 1_555
H19 C37 1_555 1_555
C38 C37 1_555 1_555
H20 C38 1_555 1_555
C39 C38 1_555 1_555
C40 C39 1_555 1_555
H21 C40 1_555 1_555
C41 C36 1_555 1_555
H22 C41 1_555 1_555
C42 C39 1_555 1_555
O12 C63 1_555 1_555
H25 C48 1_555 1_555
H26 C49 1_555 1_555
C53 C52 1_555 1_555
C54 C53 1_555 1_555
H28 C54 1_555 1_555
C55 C54 1_555 1_555
H29 C55 1_555 1_555
C57 C53 1_555 1_555
C61 C60 1_555 1_555
H32 C61 1_555 1_555
C62 C57 1_555 1_555
H33 C62 1_555 1_555
C63 C60 1_555 1_555
H36 C69 1_555 1_555
H37 C70 1_555 1_555
Cd9 O7 1_555 1_555
C34 C35 1_555 1_555
C40 C41 1_555 1_555
O12 Cd6 1_555 1_555
C48 C49 1_555 1_555
C55 C56 1_555 1_555
C61 C62 1_555 1_555
C69 C70 1_555 1_555
Cd6 O1 1_555 1_555
Cd12_7 O2 1_555 1_555
O2 Cd6 1_555 1_555

#END
