
###############################################################################
#
# This file contains modified crystal structure data generated from the
# MOF subset of the Cambridge Structural Database (CSD) v543 
# hosted by the Cambridge Crystallographic Data Centre (CCDC).
#
# This work is licensed under the Creative Commons
# Attribution-NonCommercial-ShareAlike 4.0 International License.
# To view a copy of this license, visit
# http://creativecommons.org/licenses/by-nc-sa/4.0/
# or send a letter to
# Creative Commons, PO Box 1866, Mountain View, CA 94042, USA.
#
# CIF created using the CSD Python API on 29 September 2022
# The structure has been converted into the P1 space group
# The structure has a 3D framework
# The original CSD entry ZUSDEZ is in the triclinic crystal system
# The framework has been calculated to contain at least 10.0% void space
# The void calculation uses a probe of radius 1.32A, grid spacing 0.4
# The framework is charged, counterions have been retained in the structure
#
###############################################################################

data_ZUSDEZ
_chemical_formula_moiety         '(C84 H44 Co8 O12 2-)n'
_symmetry_cell_setting           triclinic
_symmetry_space_group_name_H-M   'P 1'
_symmetry_Int_Tables_number      1
_space_group_name_Hall           'P 1'
loop_
_symmetry_equiv_pos_site_id
_symmetry_equiv_pos_as_xyz
1 x,y,z
_cell_length_a                   13.3473(8)
_cell_length_b                   16.8933(14)
_cell_length_c                   16.9561(14)
_cell_angle_alpha                111.241(7)
_cell_angle_beta                 100.051(6)
_cell_angle_gamma                111.337(7)
_cell_volume                     3105.76
loop_
_atom_site_label
_atom_site_type_symbol
_atom_site_fract_x
_atom_site_fract_y
_atom_site_fract_z
Co12 Co 0.000000 0.000000 0.000000
O7 O 0.0326(5) 0.2158(5) 0.1791(4)
H20 H 0.021515 0.226223 0.328898
Co9 Co 0.16837(10) 0.24395(9) 0.14009(8)
Co12_2 Co 0.000000 -0.000000 1.000000
Co12_3 Co -0.000000 1.000000 0.000000
Co12_4 Co -0.000000 1.000000 1.000000
O9 O 0.0990(6) 0.2689(5) 0.0216(5)
O10 O 0.1101(4) 0.1369(4) 0.0089(3)
Co12_5 Co 1.000000 0.000000 0.000000
O5 O 0.2359(5) 0.1865(5) 0.2029(4)
O6 O 0.1214(5) 0.0274(4) 0.1131(4)
O8 O 0.9172(4) 0.0629(4) 0.0803(4)
C22 C 0.2004(8) 0.1004(8) 0.1805(6)
C23 C 0.2654(7) 0.0765(7) 0.2435(6)
C24 C 0.3600(7) 0.1490(7) 0.3200(6)
H12 H 0.386040 0.213656 0.331035
C25 C 0.4179(7) 0.1287(7) 0.3813(6)
H13 H 0.483159 0.179253 0.432743
C26 C 0.3805(8) 0.0361(8) 0.3672(6)
C29 C 0.4415(7) 0.0173(7) 0.4352(6)
C30 C 0.5507(8) 0.0312(6) 0.4449(6)
C31 C 0.6100(8) 0.0598(7) 0.3892(6)
H16 H 0.568504 0.065490 0.341794
C32 C 0.7239(8) 0.0799(7) 0.3996(6)
C33 C 0.7825(8) 0.0646(7) 0.4670(7)
H17 H 0.859432 0.075379 0.475163
C34 C 0.7280(7) 0.0342(6) 0.5208(6)
H18 H 0.769016 0.024422 0.565081
C35 C 0.6128(7) 0.0169(7) 0.5122(6)
C36 C 0.7768(8) 0.1026(7) 0.3371(6)
C37 C 0.8907(8) 0.1670(6) 0.3685(6)
H19 H 0.933461 0.202408 0.431606
C38 C 0.9431(8) 0.1802(6) 0.3073(6)
C39 C 0.8819(8) 0.1266(7) 0.2141(6)
C40 C 0.7694(8) 0.0651(7) 0.1841(6)
H21 H 0.726832 0.029804 0.121020
C41 C 0.7155(8) 0.0529(7) 0.2440(7)
H22 H 0.635625 0.010132 0.221872
C42 C 0.9508(8) 0.1358(8) 0.1517(7)
O11 O 0.6503(6) 0.6691(5) 0.8602(5)
O12 O 0.7415(6) 0.6178(5) 0.7695(5)
C43 C 0.0942(7) 0.1884(8) 0.9718(7)
C44 C 0.0791(7) 0.1574(7) 0.8759(6)
C45 C 0.0392(7) 0.1981(6) 0.8293(6)
H23 H 0.024469 0.249827 0.859663
C46 C 0.0207(7) 0.1629(7) 0.7380(6)
C47 C 0.0448(7) 0.0901(7) 0.6944(6)
C48 C 0.0902(8) 0.0518(7) 0.7429(6)
H25 H 0.110095 0.002898 0.714153
C49 C 0.1055(7) 0.0875(7) 0.8347(6)
H26 H 0.135155 0.061809 0.868662
C50 C 0.0231(7) 0.0455(7) 0.5951(6)
C51 C 0.0884(7) 0.0945(7) 0.5572(6)
C52 C 0.1803(7) 0.1891(7) 0.6112(6)
H27 H 0.194623 0.219751 0.674246
C53 C 0.2498(8) 0.2383(7) 0.5755(7)
C54 C 0.2231(8) 0.1943(8) 0.4825(7)
H28 H 0.266617 0.229514 0.456930
C55 C 0.1351(7) 0.1005(7) 0.4244(6)
H29 H 0.124374 0.072237 0.361875
C56 C 0.0632(7) 0.0485(7) 0.4580(6)
C57 C 0.3478(9) 0.3318(8) 0.6301(7)
C58 C 0.3541(9) 0.4013(8) 0.7083(8)
H30 H 0.287489 0.387928 0.724570
C59 C 0.4505(10) 0.4895(8) 0.7651(7)
H31 H 0.451935 0.535149 0.819050
C60 C 0.5479(9) 0.5063(9) 0.7360(9)
C61 C 0.5468(11) 0.4393(9) 0.6621(8)
H32 H 0.613414 0.450041 0.645956
C62 C 0.4497(9) 0.3572(8) 0.6120(7)
H33 H 0.449907 0.311726 0.558860
C63 C 0.6500(11) 0.6033(9) 0.7928(8)
C69 C 0.7091(8) 0.0375(7) 0.7088(6)
H36 H 0.732138 0.102225 0.721114
C70 C 0.7673(7) 0.0148(8) 0.7691(6)
H37 H 0.831999 0.065793 0.820692
Co6 Co 0.83163(10) 0.75605(9) 0.85991(8)
Co12_6 Co 1.000000 -0.000000 1.000000
Co12_7 Co 1.000000 1.000000 0.000000
H2 H 0.008960 0.810526 0.294850
C27 C 0.2909(8) 0.9625(7) 0.2912(6)
H14 H 0.267862 0.897775 0.278886
C28 C 0.2327(7) 0.9852(8) 0.2309(6)
H15 H 0.168001 0.934207 0.179308
O13 O 0.7641(5) 0.8135(5) 0.7971(4)
O14 O 0.8786(5) 0.9726(4) 0.8869(4)
O16 O 0.0828(4) 0.9371(4) 0.9197(4)
C64 C 0.7996(8) 0.8996(8) 0.8195(6)
C65 C 0.7346(7) 0.9235(7) 0.7565(6)
C66 C 0.6400(7) 0.8510(7) 0.6800(6)
H34 H 0.613960 0.786344 0.668965
C67 C 0.5821(7) 0.8713(7) 0.6187(6)
H35 H 0.516841 0.820747 0.567257
C68 C 0.6195(8) 0.9639(8) 0.6328(6)
C71 C 0.5585(7) 0.9827(7) 0.5648(6)
C72 C 0.4493(8) 0.9688(6) 0.5551(6)
C73 C 0.3900(8) 0.9402(7) 0.6108(6)
H38 H 0.431496 0.934510 0.658206
C74 C 0.2761(8) 0.9201(7) 0.6004(6)
C75 C 0.2175(8) 0.9354(7) 0.5330(7)
H39 H 0.140568 0.924621 0.524837
C76 C 0.2720(7) 0.9658(6) 0.4792(6)
H40 H 0.230984 0.975578 0.434919
C77 C 0.3872(7) 0.9831(7) 0.4878(6)
C78 C 0.2232(8) 0.8974(7) 0.6629(6)
C79 C 0.1093(8) 0.8330(6) 0.6315(6)
H41 H 0.066539 0.797592 0.568394
C80 C 0.0569(8) 0.8198(6) 0.6927(6)
C81 C 0.1181(8) 0.8734(7) 0.7859(6)
C82 C 0.2306(8) 0.9349(7) 0.8159(6)
H43 H 0.273168 0.970196 0.878980
C83 C 0.2845(8) 0.9471(7) 0.7560(7)
H44 H 0.364375 0.989868 0.778128
C84 C 0.0492(8) 0.8642(8) 0.8483(7)
Co12_8 Co 1.000000 1.000000 1.000000
H24 H 0.991040 0.189474 0.705150
O3 O 0.3497(6) 0.3309(5) 0.1398(5)
O4 O 0.2585(6) 0.3822(5) 0.2305(5)
C1 C 0.9058(7) 0.8116(8) 0.0282(7)
C2 C 0.9209(7) 0.8426(7) 0.1241(6)
C3 C 0.9608(7) 0.8019(6) 0.1707(6)
H1 H 0.975531 0.750173 0.140337
C4 C 0.9793(7) 0.8371(7) 0.2620(6)
C5 C 0.9552(7) 0.9099(7) 0.3056(6)
C6 C 0.9098(8) 0.9482(7) 0.2571(6)
H3 H 0.889905 0.997102 0.285847
C7 C 0.8945(7) 0.9125(7) 0.1653(6)
H4 H 0.864845 0.938191 0.131338
C8 C 0.9769(7) 0.9545(7) 0.4049(6)
C9 C 0.9116(7) 0.9055(7) 0.4428(6)
C10 C 0.8197(7) 0.8109(7) 0.3888(6)
H5 H 0.805377 0.780249 0.325754
C11 C 0.7502(8) 0.7617(7) 0.4245(7)
C12 C 0.7769(8) 0.8057(8) 0.5175(7)
H6 H 0.733383 0.770486 0.543070
C13 C 0.8649(7) 0.8995(7) 0.5756(6)
H7 H 0.875626 0.927763 0.638125
C14 C 0.9368(7) 0.9515(7) 0.5420(6)
C15 C 0.6522(9) 0.6682(8) 0.3699(7)
C16 C 0.6459(9) 0.5987(8) 0.2917(8)
H8 H 0.712511 0.612072 0.275430
C17 C 0.5495(10) 0.5105(8) 0.2349(7)
H9 H 0.548065 0.464851 0.180950
C18 C 0.4521(9) 0.4937(9) 0.2640(9)
C19 C 0.4532(11) 0.5607(9) 0.3379(8)
H10 H 0.386586 0.549959 0.354044
C20 C 0.5503(9) 0.6428(8) 0.3880(7)
H11 H 0.550093 0.688274 0.441140
C21 C 0.3500(11) 0.3967(9) 0.2072(8)
O15 O 0.9674(5) 0.7842(5) 0.8209(4)
H42 H 0.978485 0.773777 0.671102
O1 O 0.9010(6) 0.7311(5) 0.9784(5)
O2 O 0.8899(4) 0.8631(4) 0.9911(3)
loop_
_geom_bond_atom_site_label_1
_geom_bond_atom_site_label_2
_geom_bond_site_symmetry_1
_geom_bond_site_symmetry_2
Co9 O7 1_555 1_555
Co9 O9 1_555 1_555
Co12 O10 1_555 1_555
O10 Co9 1_555 1_555
O5 C22 1_555 1_555
O6 Co12 1_555 1_555
O8 C42 1_555 1_555
C22 O6 1_555 1_555
C23 C22 1_555 1_555
C24 C23 1_555 1_555
H12 C24 1_555 1_555
C25 C24 1_555 1_555
H13 C25 1_555 1_555
C26 C25 1_555 1_555
C29 C26 1_555 1_555
C30 C29 1_555 1_555
C31 C30 1_555 1_555
H16 C31 1_555 1_555
C32 C31 1_555 1_555
C33 C32 1_555 1_555
H17 C33 1_555 1_555
C34 C33 1_555 1_555
H18 C34 1_555 1_555
C35 C30 1_555 1_555
C36 C32 1_555 1_555
C37 C36 1_555 1_555
H19 C37 1_555 1_555
C38 C37 1_555 1_555
C39 C38 1_555 1_555
C40 C39 1_555 1_555
H21 C40 1_555 1_555
C41 C36 1_555 1_555
H22 C41 1_555 1_555
C42 C39 1_555 1_555
O11 C63 1_555 1_555
O12 C63 1_555 1_555
C43 C44 1_555 1_555
C44 C45 1_555 1_555
C45 H23 1_555 1_555
C46 C45 1_555 1_555
C47 C46 1_555 1_555
C48 C47 1_555 1_555
H25 C48 1_555 1_555
C49 C44 1_555 1_555
H26 C49 1_555 1_555
C51 C50 1_555 1_555
C52 C51 1_555 1_555
H27 C52 1_555 1_555
C53 C52 1_555 1_555
C54 C53 1_555 1_555
H28 C54 1_555 1_555
C55 C54 1_555 1_555
H29 C55 1_555 1_555
C57 C53 1_555 1_555
C58 C57 1_555 1_555
H30 C58 1_555 1_555
C59 C58 1_555 1_555
H31 C59 1_555 1_555
C60 C59 1_555 1_555
C61 C60 1_555 1_555
H32 C61 1_555 1_555
C62 C57 1_555 1_555
H33 C62 1_555 1_555
C63 C60 1_555 1_555
H36 C69 1_555 1_555
H37 C70 1_555 1_555
Co6 O11 1_555 1_555
Co9 O5 1_555 1_555
Co12_5 O8 1_555 1_555
C34 C35 1_555 1_555
C40 C41 1_555 1_555
O12 Co6 1_555 1_555
C47 C50 1_555 1_555
C48 C49 1_555 1_555
C51 C56 1_555 1_555
C55 C56 1_555 1_555
C61 C62 1_555 1_555
C69 C70 1_555 1_555
H14 C27 1_555 1_555
H15 C28 1_555 1_555
O13 C64 1_555 1_555
O14 C64 1_555 1_555
O16 C84 1_555 1_555
C64 C65 1_555 1_555
C65 C66 1_555 1_555
C66 H34 1_555 1_555
C67 C66 1_555 1_555
H35 C67 1_555 1_555
C68 C67 1_555 1_555
C72 C71 1_555 1_555
C73 C72 1_555 1_555
H38 C73 1_555 1_555
C74 C73 1_555 1_555
C75 C74 1_555 1_555
H39 C75 1_555 1_555
C76 C75 1_555 1_555
H40 C76 1_555 1_555
C78 C74 1_555 1_555
C79 C78 1_555 1_555
H41 C79 1_555 1_555
C80 C79 1_555 1_555
C81 C80 1_555 1_555
C82 C81 1_555 1_555
H43 C82 1_555 1_555
C83 C78 1_555 1_555
H44 C83 1_555 1_555
C84 C81 1_555 1_555
Co6 O13 1_555 1_555
Co12_8 O14 1_555 1_555
C27 C28 1_555 1_555
O16 Co12_4 1_555 1_555
C68 C71 1_555 1_555
C72 C77 1_555 1_555
C76 C77 1_555 1_555
C82 C83 1_555 1_555
O3 C21 1_555 1_555
O4 C21 1_555 1_555
C2 C1 1_555 1_555
C3 C2 1_555 1_555
H1 C3 1_555 1_555
C4 C3 1_555 1_555
C5 C4 1_555 1_555
C6 C5 1_555 1_555
H3 C6 1_555 1_555
C7 C2 1_555 1_555
H4 C7 1_555 1_555
C8 C5 1_555 1_555
C9 C8 1_555 1_555
C10 C9 1_555 1_555
H5 C10 1_555 1_555
C11 C10 1_555 1_555
C12 C11 1_555 1_555
H6 C12 1_555 1_555
C13 C12 1_555 1_555
H7 C13 1_555 1_555
C14 C9 1_555 1_555
C15 C11 1_555 1_555
C16 C15 1_555 1_555
H8 C16 1_555 1_555
C17 C16 1_555 1_555
H9 C17 1_555 1_555
C18 C17 1_555 1_555
C19 C18 1_555 1_555
H10 C19 1_555 1_555
C20 C15 1_555 1_555
H11 C20 1_555 1_555
C21 C18 1_555 1_555
Co9 O3 1_555 1_555
Co6 O15 1_555 1_555
O4 Co9 1_555 1_555
C6 C7 1_555 1_555
C13 C14 1_555 1_555
C19 C20 1_555 1_555
Co6 O1 1_555 1_555
Co12_8 O2 1_555 1_555
O2 Co6 1_555 1_555

#END
