
###############################################################################
#
# This file contains modified crystal structure data generated from the
# MOF subset of the Cambridge Structural Database (CSD) v543 
# hosted by the Cambridge Crystallographic Data Centre (CCDC).
#
# This work is licensed under the Creative Commons
# Attribution-NonCommercial-ShareAlike 4.0 International License.
# To view a copy of this license, visit
# http://creativecommons.org/licenses/by-nc-sa/4.0/
# or send a letter to
# Creative Commons, PO Box 1866, Mountain View, CA 94042, USA.
#
# CIF created using the CSD Python API on 29 September 2022
# The structure has been converted into the P1 space group
# The structure has a 3D framework
# The original CSD entry ZUVTEP is in the hexagonal crystal system
# The framework has been calculated to contain at least 10.0% void space
# The void calculation uses a probe of radius 1.32A, grid spacing 0.4
# H atom positions have been added when not included in the experimental data
# Generated hydrogen atom positions removed from atoms on special positions
#
###############################################################################

data_ZUVTEP
_chemical_formula_moiety         '(C24 H96 La14 O45)n'
_symmetry_cell_setting           triclinic
_symmetry_space_group_name_H-M   'P 1'
_symmetry_Int_Tables_number      1
_space_group_name_Hall           'P 1'
loop_
_symmetry_equiv_pos_site_id
_symmetry_equiv_pos_as_xyz
1 x,y,z
_cell_length_a                   9.507(1)
_cell_length_b                   9.507(1)
_cell_length_c                   17.443(4)
_cell_angle_alpha                90
_cell_angle_beta                 90
_cell_angle_gamma                120
_cell_volume                     1365.33
loop_
_atom_site_label
_atom_site_type_symbol
_atom_site_fract_x
_atom_site_fract_y
_atom_site_fract_z
H17 H 0.0479785 0.547224 0.225308
H18 H 0.0272126 0.446697 0.303617
La1 La 0.6667 0.3333 0.2500
La2 La 0.0000 0.0000 0.0000
C1 C 0.3501(3) 0.1850(7) 0.1046(2)
C2 C 0.4009(4) 0.0941(5) 0.0514(2)
O1 O 0.4500(3) 0.2705(3) 0.1549(1)
O2 O 0.2716(3) 0.0000 0.0000
O3 O 0.2146(3) 0.1728(3) 0.0953(1)
O4 O 0.9888(5) 0.4387(5) 0.2500
H1 H 0.4307(4) 0.0279(5) 0.0810(2)
H2 H 0.4947(4) 0.1697(5) 0.0227(2)
O5 O 0.8205(4) 0.5500(3) 0.3451(1)
O6 O 0.7295(3) 0.1795(4) 0.1549(1)
O7 O 0.4500(3) 0.2705(3) 0.3451(1)
O8 O 0.8205(4) 0.5500(3) 0.1549(1)
O9 O 0.7295(3) 0.1795(4) 0.3451(1)
O10 O 0.4499(7) 0.0112(5) 0.2500
O11 O 0.5613(5) 0.5501(7) 0.2500
O12 O 0.0000 0.2716(3) 0.0000
La2_2 La 0.0000 0.0000 1.0000
O2_2 O 0.2716(3) 0.0000 1.0000
O12_2 O 0.0000 0.2716(3) 1.0000
O17 O 0.1728(3) 0.2146(3) 0.9047(1)
C10 C 0.0941(5) 0.4009(4) 0.9486(2)
C12 C 0.1850(7) 0.3501(3) 0.8954(2)
H11 H 0.0279(5) 0.4307(4) 0.9190(2)
H12 H 0.1697(5) 0.4947(4) 0.9773(2)
O23 O 0.2705(3) 0.4500(3) 0.8451(1)
La7 La 0.3333 0.6667 0.7500
La2_3 La 0.0000 1.0000 1.0000
O2_3 O 0.2716(3) 1.0000 1.0000
O15 O 0.0418(4) 0.8272(3) 0.9047(1)
C3 C 0.3068(6) 0.9059(5) 0.9486(2)
C4 C 0.1651(8) 0.8150(7) 0.8954(2)
H3 H 0.4028(6) 0.9721(5) 0.9190(2)
H4 H 0.3250(6) 0.8303(5) 0.9773(2)
O19 O 0.1795(4) 0.7295(3) 0.8451(1)
La2_4 La 1.0000 0.0000 0.0000
O12_3 O 1.0000 0.2716(3) 0.0000
O14 O 0.8272(3) 0.0418(4) 0.0953(1)
C8 C 0.8150(7) 0.1651(8) 0.1046(2)
C9 C 0.9059(5) 0.3068(6) 0.0514(2)
H9 H 0.9721(5) 0.4028(6) 0.0810(2)
H10 H 0.8303(5) 0.3250(6) 0.0227(2)
La2_5 La 1.0000 1.0000 0.0000
O13 O 0.7284(3) 0.7284(3) 0.0000
O16 O 0.9582(4) 0.7854(3) 0.0953(1)
C6 C 0.6932(6) 0.5991(4) 0.0514(2)
C11 C 0.8349(8) 0.6499(3) 0.1046(2)
H5 H 0.5972(6) 0.5693(4) 0.0810(2)
H6 H 0.6750(6) 0.5053(4) 0.0227(2)
La2_6 La 1.0000 1.0000 1.0000
O13_2 O 0.7284(3) 0.7284(3) 1.0000
O18 O 0.7854(3) 0.9582(4) 0.9047(1)
C5 C 0.6499(3) 0.8349(8) 0.8954(2)
C7 C 0.5991(4) 0.6932(6) 0.9486(2)
O20 O 0.5500(3) 0.8205(4) 0.8451(1)
H7 H 0.5693(4) 0.5972(6) 0.9190(2)
H8 H 0.5053(4) 0.6750(6) 0.9773(2)
La2_7 La 0.0000 0.0000 0.5000
O12_4 O 0.2716(3) -0.0000 0.5000
O13_3 O 0.0000(4) 0.2716(3) 0.5000
O14_2 O 0.2146(5) 0.1728(3) 0.4047(1)
O18_2 O 0.1728(5) 0.2146(3) 0.5953(1)
C5_2 C 0.1850(9) 0.3501(3) 0.6046(2)
C7_2 C 0.0941(7) 0.4009(4) 0.5514(2)
C8_2 C 0.3501(11) 0.1850(7) 0.3954(2)
C9_2 C 0.4009(8) 0.0941(5) 0.4486(2)
O20_2 O 0.2705(5) 0.4500(3) 0.6549(1)
H7_2 H 0.0279(7) 0.4307(4) 0.5810(2)
H8_2 H 0.1697(7) 0.4947(4) 0.5227(2)
H9_2 H 0.4307(8) 0.0279(5) 0.4190(2)
H10_2 H 0.4947(8) 0.1697(5) 0.4773(2)
La2_8 La 0.0000 1.0000 0.5000
O12_5 O 0.2716(3) 1.0000 0.5000
O17_2 O 0.0418(4) 0.8272(3) 0.5953(1)
C10_2 C 0.3068(6) 0.9059(5) 0.5514(2)
C12_2 C 0.1651(8) 0.8150(7) 0.6046(2)
H11_2 H 0.4028(6) 0.9721(5) 0.5810(2)
H12_2 H 0.3250(6) 0.8303(5) 0.5227(2)
O23_2 O 0.1795(4) 0.7295(3) 0.6549(1)
H13 H 0.0499071 0.556505 0.237858
H14 H 0.0130226 0.378043 0.210794
La2_9 La 1.0000 0.0000 0.5000
O13_4 O 1.0000(4) 0.2716(3) 0.5000
O16_2 O 0.8272(5) 0.0418(4) 0.4047(1)
C6_2 C 0.9059(7) 0.3068(6) 0.4486(2)
C11_2 C 0.8150(9) 0.1651(8) 0.3954(2)
H5_2 H 0.9721(7) 0.4028(6) 0.4190(2)
H6_2 H 0.8303(7) 0.3250(6) 0.4773(2)
La2_10 La 1.0000 1.0000 0.5000
C1_2 C 0.8349(8) 0.6499(3) 0.3954(2)
C2_2 C 0.6932(6) 0.5991(4) 0.4486(2)
O2_4 O 0.7284(3) 0.7284(3) 0.5000
O3_2 O 0.9582(4) 0.7854(3) 0.4047(1)
H1_2 H 0.5972(6) 0.5693(4) 0.4190(2)
H2_2 H 0.6750(6) 0.5053(4) 0.4773(2)
O15_2 O 0.7854(5) 0.9582(4) 0.5953(1)
C3_2 C 0.5991(8) 0.6932(6) 0.5514(2)
C4_2 C 0.6499(11) 0.8349(8) 0.6046(2)
H3_2 H 0.5693(8) 0.5972(6) 0.5810(2)
H4_2 H 0.5053(8) 0.6750(6) 0.5227(2)
O19_2 O 0.5500(5) 0.8205(4) 0.6549(1)
O4_2 O 0.4387(5) 0.9888(5) 0.7500
O10_2 O 0.0112(5) 0.4499(7) 0.7500
O11_2 O 0.5501(7) 0.5613(5) 0.7500
H15 H 0.965795 0.446294 0.698297
H16 H 0.956177 0.483165 0.788328
H15_2 H 0.0342046 0.480499 0.198297
H16_2 H 0.0438235 0.526988 0.288328
H13_2 H 0.506598 0.950093 0.262142
H14_2 H 0.36502 0.986977 0.289206
H15_3 H 0.480499 0.0342046 0.801703
H16_3 H 0.526988 0.0438235 0.711672
H13_3 H 0.950093 0.506598 0.737858
H14_3 H 0.986977 0.36502 0.710794
H15_4 H 0.446294 0.965795 0.301703
H16_4 H 0.483165 0.956177 0.211672
H13_4 H 0.556505 0.0499071 0.762142
H14_4 H 0.378043 0.0130226 0.789206
H15_5 H 0.0342046 0.480499 0.301703
H16_5 H 0.0438235 0.526988 0.211672
H13_5 H 0.506598 0.950093 0.237858
H14_5 H 0.36502 0.986977 0.210794
H15_6 H 0.480499 0.0342046 0.698297
H16_6 H 0.526988 0.0438235 0.788328
H13_6 H 0.950093 0.506598 0.762142
H14_6 H 0.986977 0.36502 0.789206
La2_11 La 0.0000 1.0000 0.0000
O2_5 O 0.2716(3) 1.0000 0.0000
H15_7 H 0.446294 0.965795 0.198297
H16_7 H 0.483165 0.956177 0.288328
H13_7 H 0.0499071 0.556505 0.262142
H14_7 H 0.0130226 0.378043 0.289206
La2_12 La 1.0000 0.0000 1.0000
O12_6 O 1.0000 0.2716(3) 1.0000
H15_8 H 0.965795 0.446294 0.801703
H16_8 H 0.956177 0.483165 0.711672
H13_8 H 0.556505 0.0499071 0.737858
H14_8 H 0.378043 0.0130226 0.710794
H17_2 H 0.499246 0.952022 0.274692
H18_2 H 0.419485 0.972787 0.196383
H17_3 H 0.547224 0.0479785 0.725308
H18_3 H 0.446697 0.0272126 0.803617
H17_4 H 0.0479785 0.547224 0.274692
H18_4 H 0.0272126 0.446697 0.196383
H17_5 H 0.952022 0.499246 0.725308
H18_5 H 0.972787 0.419485 0.803617
H17_6 H 0.499246 0.952022 0.225308
H18_6 H 0.419485 0.972787 0.303617
H17_7 H 0.547224 0.0479785 0.774692
H18_7 H 0.446697 0.0272126 0.696383
H17_8 H 0.952022 0.499246 0.774692
H18_8 H 0.972787 0.419485 0.696383
loop_
_geom_bond_atom_site_label_1
_geom_bond_atom_site_label_2
_geom_bond_site_symmetry_1
_geom_bond_site_symmetry_2
La1 O1 1_555 1_555
La2 O2 1_555 1_555
C1 C2 1_555 1_555
C2 O2 1_555 1_555
O1 C1 1_555 1_555
O3 La2 1_555 1_555
O4 La1 1_555 1_555
H1 C2 1_555 1_555
H2 C2 1_555 1_555
O5 La1 1_555 1_555
O6 La1 1_555 1_555
O7 La1 1_555 1_555
O8 La1 1_555 1_555
O9 La1 1_555 1_555
O10 La1 1_555 1_555
O11 La1 1_555 1_555
O12 La2 1_555 1_555
C1 O3 1_555 1_555
La2_2 O2_2 1_555 1_555
O12_2 La2_2 1_555 1_555
O17 La2_2 1_555 1_555
C10 O12_2 1_555 1_555
C12 O17 1_555 1_555
H11 C10 1_555 1_555
H12 C10 1_555 1_555
O23 C12 1_555 1_555
La7 O23 1_555 1_555
C10 C12 1_555 1_555
La2_3 O2_3 1_555 1_555
O2_3 C3 1_555 1_555
O15 La2_3 1_555 1_555
C3 C4 1_555 1_555
C4 O15 1_555 1_555
H3 C3 1_555 1_555
H4 C3 1_555 1_555
O19 C4 1_555 1_555
La7 O19 1_555 1_555
O12_3 La2_4 1_555 1_555
O14 La2_4 1_555 1_555
C8 O14 1_555 1_555
C9 O12_3 1_555 1_555
O6 C8 1_555 1_555
H9 C9 1_555 1_555
H10 C9 1_555 1_555
C8 C9 1_555 1_555
O13 La2_5 1_555 1_555
O16 La2_5 1_555 1_555
C6 O13 1_555 1_555
C11 O16 1_555 1_555
H5 C6 1_555 1_555
H6 C6 1_555 1_555
O8 C11 1_555 1_555
C6 C11 1_555 1_555
O13_2 La2_6 1_555 1_555
O18 La2_6 1_555 1_555
C5 O18 1_555 1_555
C7 O13_2 1_555 1_555
O20 C5 1_555 1_555
H7 C7 1_555 1_555
H8 C7 1_555 1_555
La7 O20 1_555 1_555
C5 C7 1_555 1_555
O12_4 La2_7 1_555 1_555
O13_3 La2_7 1_555 1_555
O14_2 La2_7 1_555 1_555
O18_2 La2_7 1_555 1_555
C5_2 O18_2 1_555 1_555
C7_2 O13_3 1_555 1_555
C8_2 O14_2 1_555 1_555
C9_2 O12_4 1_555 1_555
O20_2 C5_2 1_555 1_555
H7_2 C7_2 1_555 1_555
H8_2 C7_2 1_555 1_555
O7 C8_2 1_555 1_555
H9_2 C9_2 1_555 1_555
H10_2 C9_2 1_555 1_555
La7 O20_2 1_555 1_555
C5_2 C7_2 1_555 1_555
C8_2 C9_2 1_555 1_555
O12_5 La2_8 1_555 1_555
O17_2 La2_8 1_555 1_555
C10_2 O12_5 1_555 1_555
C12_2 O17_2 1_555 1_555
H11_2 C10_2 1_555 1_555
H12_2 C10_2 1_555 1_555
O23_2 C12_2 1_555 1_555
La7 O23_2 1_555 1_555
C10_2 C12_2 1_555 1_555
O13_4 La2_9 1_555 1_555
O16_2 La2_9 1_555 1_555
C6_2 O13_4 1_555 1_555
C11_2 O16_2 1_555 1_555
H5_2 C6_2 1_555 1_555
H6_2 C6_2 1_555 1_555
O9 C11_2 1_555 1_555
C6_2 C11_2 1_555 1_555
La2_10 O2_4 1_555 1_555
C1_2 C2_2 1_555 1_555
C2_2 O2_4 1_555 1_555
O5 C1_2 1_555 1_555
O2_4 C3_2 1_555 1_555
O3_2 La2_10 1_555 1_555
H1_2 C2_2 1_555 1_555
H2_2 C2_2 1_555 1_555
O15_2 La2_10 1_555 1_555
C3_2 C4_2 1_555 1_555
C4_2 O15_2 1_555 1_555
H3_2 C3_2 1_555 1_555
H4_2 C3_2 1_555 1_555
O19_2 C4_2 1_555 1_555
La7 O19_2 1_555 1_555
C1_2 O3_2 1_555 1_555
O4_2 La7 1_555 1_555
O10_2 La7 1_555 1_555
O11_2 La7 1_555 1_555
La2_11 O2_5 1_555 1_555
O12_6 La2_12 1_555 1_555

#END
