
###############################################################################
#
# This file contains modified crystal structure data generated from the
# MOF subset of the Cambridge Structural Database (CSD) v543 
# hosted by the Cambridge Crystallographic Data Centre (CCDC).
#
# This work is licensed under the Creative Commons
# Attribution-NonCommercial-ShareAlike 4.0 International License.
# To view a copy of this license, visit
# http://creativecommons.org/licenses/by-nc-sa/4.0/
# or send a letter to
# Creative Commons, PO Box 1866, Mountain View, CA 94042, USA.
#
# CIF created using the CSD Python API on 29 September 2022
# The structure has been converted into the P1 space group
# The structure has a 3D framework
# The original CSD entry ZUWHEH is in the rhombohedral crystal system
# The framework has been calculated to contain at least 10.0% void space
# The void calculation uses a probe of radius 1.32A, grid spacing 0.4
# H atom positions have been added when not included in the experimental data
#
###############################################################################

data_ZUWHEH
_chemical_formula_moiety         '(C324 H72 Co69 O276)n'
_symmetry_cell_setting           triclinic
_symmetry_space_group_name_H-M   'P 1'
_symmetry_Int_Tables_number      1
_space_group_name_Hall           'P 1'
loop_
_symmetry_equiv_pos_site_id
_symmetry_equiv_pos_as_xyz
1 x,y,z
_cell_length_a                   51.8516(18)
_cell_length_b                   51.8516(18)
_cell_length_c                   6.8749(3)
_cell_angle_alpha                90
_cell_angle_beta                 90
_cell_angle_gamma                120
_cell_volume                     16007.4
loop_
_atom_site_label
_atom_site_type_symbol
_atom_site_fract_x
_atom_site_fract_y
_atom_site_fract_z
Co6 Co 0.8478(3) 0.0327(4) 0.978(3)
O1 O 0.8515(10) 0.9710(9) 0.098(6)
Co5 Co 0.8151(3) 0.8478(3) 0.022(3)
Co9 Co 0.8535(3) 0.9998(4) 0.314(3)
H2 H 0.847584 0.922429 0.00555611
Co2 Co 0.8537(3) 0.8535(3) 0.686(3)
C1 C 0.8442(8) 0.9715(7) 0.922(5)
C2 C 0.8199(8) 0.8738(7) 0.412(5)
C3 C 0.8378(5) 0.9460(5) 0.789(5)
C4 C 0.8262(5) 0.8992(5) 0.544(5)
C5 C 0.8349(6) 0.8991(5) 0.734(5)
C6 C 0.8291(6) 0.9461(5) 0.600(5)
C7 C 0.8407(6) 0.9225(6) 0.856(4)
C8 C 0.8233(6) 0.9227(6) 0.477(4)
O2 O 0.8127(10) 0.8743(9) 0.236(5)
O3 O 0.8422(8) 0.9934(6) 0.859(6)
O4 O 0.8217(8) 0.8518(6) 0.475(6)
O5 O 0.8378(8) 0.8756(6) 0.801(5)
O6 O 0.8262(8) 0.9695(6) 0.533(5)
C9 C 0.6995(7) 0.7140(6) 0.284(5)
C11 C 0.7238(5) 0.7340(5) 0.147(4)
C13 C 0.7675(5) 0.7806(5) 0.079(4)
C15 C 0.7451(6) 0.7622(5) 0.205(4)
O7 O 0.6995(10) 0.7223(7) 0.458(5)
O9 O 0.6788(7) 0.6888(6) 0.227(6)
O11 O 0.7889(7) 0.8087(5) 0.138(5)
O13 O 0.896(3) 0.895(4) 0.562(13)
C17 C 0.919(2) 0.896(3) 0.594(10)
O14 O 0.942(3) 0.896(4) 0.626(13)
Co3 Co 0.8172(4) 0.8118(3) 0.359(3)
Co4 Co 0.6765(3) 0.6919(3) 0.6501(19)
O15 O 0.817(2) 0.769(3) 0.218(13)
C18 C 0.8089(14) 0.7431(22) 0.215(10)
O16 O 0.801(2) 0.717(3) 0.212(13)
O17 O 0.8805(13) 0.8515(10) 0.902(6)
O18 O 0.8488(10) 0.8422(8) 0.141(6)
O20 O 0.8567(10) 0.8262(8) 0.467(5)
O21 O 0.7926(10) 0.7826(7) 0.582(5)
O22 O 0.6767(9) 0.6545(7) 0.560(6)
O23 O 0.6445(6) 0.6567(9) 0.894(6)
O24 O 0.8135(7) 0.8160(6) 0.814(6)
O25 O 0.7035(7) 0.6963(5) 0.903(5)
O26 O 0.6370(5) 0.6739(9) 0.570(5)
Co11 Co 0.8118(3) 0.9946(5) 0.641(3)
Co14 Co 0.6414(3) 0.6513(4) 0.3168(19)
H1 H 0.816451 0.922827 0.327425
H3 H 0.744227 0.76996 0.350731
C10 C 0.7928(7) 0.7909(6) 0.756(5)
C12 C 0.7685(5) 0.7709(5) 0.894(4)
C14 C 0.7247(5) 0.7243(5) 0.961(4)
C16 C 0.7471(6) 0.7427(5) 0.835(4)
Co13 Co 0.6821(4) 0.6568(3) 0.9834(19)
H4 H 0.747934 0.735015 0.68896
O1_2 O 0.1195(13) 0.1485(10) 0.098(6)
Co5_2 Co 0.0327(4) 0.1849(3) 0.022(3)
Co9_2 Co 0.1463(5) 0.1465(3) 0.314(3)
H2_2 H 0.0748442 0.152416 0.00555611
C1_2 C 0.1273(11) 0.1558(8) 0.922(5)
C2_2 C 0.0539(11) 0.1801(8) 0.412(5)
C3_2 C 0.1082(7) 0.1622(5) 0.789(5)
C4_2 C 0.0730(7) 0.1738(5) 0.544(5)
C5_2 C 0.0642(8) 0.1651(6) 0.734(5)
C6_2 C 0.1170(8) 0.1709(6) 0.600(5)
C7_2 C 0.0818(8) 0.1593(6) 0.856(4)
C8_2 C 0.0994(8) 0.1767(6) 0.477(4)
O2_2 O 0.0616(13) 0.1873(10) 0.236(5)
O3_2 O 0.1512(10) 0.1578(8) 0.859(6)
O4_2 O 0.0301(10) 0.1783(8) 0.475(6)
O5_2 O 0.0378(10) 0.1622(8) 0.801(5)
O6_2 O 0.1433(10) 0.1738(8) 0.533(5)
C9_2 C 0.0145(9) 0.3005(7) 0.284(5)
C11_2 C 0.0102(7) 0.2762(5) 0.147(4)
C13_2 C 0.0131(7) 0.2325(5) 0.079(4)
C15_2 C 0.0171(8) 0.2549(6) 0.205(4)
O7_2 O 0.0228(12) 0.3005(10) 0.458(5)
O9_2 O 0.0100(9) 0.3212(7) 0.227(6)
O11_2 O 0.0198(9) 0.2111(7) 0.138(5)
Co4_2 Co 0.0154(4) 0.3235(3) 0.6501(19)
Co6_2 Co 0.1849(5) 0.1522(3) 0.978(3)
O23_2 O 0.0121(11) 0.3555(6) 0.894(6)
O24_2 O 0.0025(9) 0.1865(7) 0.814(6)
O26_2 O 0.0368(10) 0.3630(5) 0.570(5)
Co11_2 Co 0.1828(6) 0.1882(3) 0.641(3)
Co14_2 Co 0.0098(5) 0.3586(3) 0.3168(19)
H1_2 H 0.106376 0.183549 0.327425
H3_2 H 0.0257327 0.255773 0.350731
C12_2 C 0.0024(7) 0.2315(5) 0.894(4)
Co2_2 Co 0.9998(4) 0.1463(3) 0.686(3)
O13_2 O 0.999(5) 0.104(3) 0.562(13)
C17_2 C 0.977(4) 0.081(2) 0.594(10)
O14_2 O 0.954(5) 0.058(3) 0.626(13)
Co3_2 Co 0.9946(5) 0.1828(4) 0.359(3)
O15_2 O 0.952(4) 0.183(2) 0.218(13)
C18_2 C 0.9342(26) 0.1911(14) 0.215(10)
O16_2 O 0.916(4) 0.199(2) 0.212(13)
O17_2 O 0.9710(16) 0.1195(13) 0.902(6)
O18_2 O 0.9934(13) 0.1512(10) 0.141(6)
O20_2 O 0.9695(13) 0.1433(10) 0.467(5)
O21_2 O 0.9900(12) 0.2074(10) 0.582(5)
O22_2 O 0.9779(11) 0.3233(9) 0.560(6)
O25_2 O 0.9928(9) 0.2965(7) 0.903(5)
C10_2 C 0.9981(9) 0.2072(7) 0.756(5)
C14_2 C 0.9996(7) 0.2753(5) 0.961(4)
C16_2 C 0.9956(8) 0.2529(6) 0.835(4)
Co13_2 Co 0.9748(5) 0.3179(4) 0.9834(19)
H4_2 H 0.987081 0.252066 0.68896
Co2_3 Co 0.1465(3) 0.0002(4) 0.686(3)
O13_3 O 0.105(4) 0.001(5) 0.562(13)
C17_3 C 0.104(3) 0.023(4) 0.594(10)
O14_3 O 0.104(4) 0.046(5) 0.626(13)
Co3_3 Co 0.1882(3) 0.0054(5) 0.359(3)
O15_3 O 0.231(3) 0.048(4) 0.218(13)
C18_3 C 0.2569(22) 0.0658(26) 0.215(10)
O16_3 O 0.283(3) 0.084(4) 0.212(13)
O17_3 O 0.1485(10) 0.0290(16) 0.902(6)
O18_3 O 0.1578(8) 0.0066(13) 0.141(6)
O20_3 O 0.1738(8) 0.0305(13) 0.467(5)
O21_3 O 0.2174(7) 0.0100(12) 0.582(5)
O22_3 O 0.3455(7) 0.0221(11) 0.560(6)
O25_3 O 0.3037(5) 0.0072(9) 0.903(5)
C10_3 C 0.2091(6) 0.0019(9) 0.756(5)
C14_3 C 0.2757(5) 0.0004(7) 0.961(4)
C16_3 C 0.2573(5) 0.0044(8) 0.835(4)
Co13_3 Co 0.3432(3) 0.0252(5) 0.9834(19)
H4_3 H 0.264985 0.0129187 0.68896
O1_3 O 0.0290(9) 0.8805(13) 0.098(6)
Co5_3 Co 0.1522(3) 0.9673(4) 0.022(3)
Co9_3 Co 0.0002(4) 0.8537(5) 0.314(3)
H2_3 H 0.0775714 0.925156 0.00555611
C1_3 C 0.0285(7) 0.8727(11) 0.922(5)
C2_3 C 0.1262(7) 0.9461(11) 0.412(5)
C3_3 C 0.0540(5) 0.8918(7) 0.789(5)
C4_3 C 0.1008(5) 0.9270(7) 0.544(5)
C5_3 C 0.1009(5) 0.9358(8) 0.734(5)
C6_3 C 0.0539(5) 0.8830(8) 0.600(5)
C7_3 C 0.0775(6) 0.9182(8) 0.856(4)
C8_3 C 0.0773(6) 0.9006(8) 0.477(4)
O2_3 O 0.1257(9) 0.9384(13) 0.236(5)
O3_3 O 0.0066(6) 0.8488(10) 0.859(6)
O4_3 O 0.1482(6) 0.9699(10) 0.475(6)
O5_3 O 0.1244(6) 0.9622(10) 0.801(5)
O6_3 O 0.0305(6) 0.8567(10) 0.533(5)
C9_3 C 0.2860(6) 0.9855(9) 0.284(5)
C11_3 C 0.2660(5) 0.9898(7) 0.147(4)
C13_3 C 0.2194(5) 0.9869(7) 0.079(4)
C15_3 C 0.2378(5) 0.9829(8) 0.205(4)
O7_3 O 0.2777(7) 0.9772(12) 0.458(5)
O9_3 O 0.3112(6) 0.9900(9) 0.227(6)
O11_3 O 0.1913(5) 0.9802(9) 0.138(5)
Co4_3 Co 0.3081(3) 0.9846(4) 0.6501(19)
O23_3 O 0.3433(9) 0.9879(11) 0.894(6)
O24_3 O 0.1840(6) 0.9975(9) 0.814(6)
O26_3 O 0.3261(9) 0.9632(10) 0.570(5)
Co11_3 Co 0.0054(5) 0.8172(6) 0.641(3)
Co14_3 Co 0.3487(4) 0.9902(5) 0.3168(19)
H1_3 H 0.0771729 0.893624 0.327425
H3_3 H 0.23004 0.974267 0.350731
C12_3 C 0.2291(5) 0.9976(7) 0.894(4)
Co6_3 Co 0.9673(4) 0.8151(5) 0.978(3)
Co2_4 Co 0.5204(3) 0.1868(3) 0.019(3)
C1_4 C 0.5109(8) 0.3048(7) 0.255(5)
C3_4 C 0.5045(5) 0.2793(5) 0.122(5)
C5_4 C 0.5016(6) 0.2324(5) 0.067(5)
C7_4 C 0.5074(6) 0.2558(6) 0.189(4)
O1_4 O 0.5182(10) 0.3043(9) 0.431(6)
O3_4 O 0.5089(8) 0.3267(6) 0.192(6)
O5_4 O 0.5045(8) 0.2089(6) 0.134(5)
Co5_4 Co 0.4818(3) 0.1811(3) 0.355(3)
Co6_4 Co 0.5145(3) 0.3660(4) 0.311(3)
Co9_4 Co 0.5202(3) 0.3331(4) 0.647(3)
O17_4 O 0.5472(13) 0.1848(10) 0.235(6)
O24_4 O 0.4802(7) 0.1493(6) 0.147(6)
O25_4 O 0.3702(7) 0.0296(5) 0.236(5)
H2_4 H 0.514251 0.255762 0.338889
C2_4 C 0.4866(8) 0.2071(7) 0.745(5)
C4_4 C 0.4929(5) 0.2325(5) 0.877(5)
C6_4 C 0.4958(6) 0.2794(5) 0.933(5)
C8_4 C 0.4900(6) 0.2560(6) 0.810(4)
O2_4 O 0.4794(10) 0.2076(9) 0.569(5)
O4_4 O 0.4884(8) 0.1851(6) 0.808(6)
O6_4 O 0.4929(8) 0.3028(6) 0.866(5)
C9_4 C 0.3662(7) 0.0473(6) 0.617(5)
C10_4 C 0.4595(7) 0.1242(6) 0.089(5)
C11_4 C 0.3905(5) 0.0673(5) 0.480(4)
C12_4 C 0.4352(5) 0.1042(5) 0.227(4)
C13_4 C 0.4342(5) 0.1139(5) 0.412(4)
C14_4 C 0.3914(5) 0.0576(5) 0.294(4)
C15_4 C 0.4118(6) 0.0955(5) 0.538(4)
C16_4 C 0.4138(6) 0.0760(5) 0.168(4)
O7_4 O 0.3662(10) 0.0556(7) 0.791(5)
O11_4 O 0.4556(7) 0.1420(5) 0.471(5)
O13_4 O 0.563(3) 0.228(4) 0.895(13)
C17_4 C 0.586(2) 0.229(3) 0.927(10)
O14_4 O 0.609(3) 0.229(4) 0.959(13)
Co3_4 Co 0.4839(4) 0.1451(3) 0.692(3)
O15_4 O 0.484(2) 0.102(3) 0.551(13)
C18_4 C 0.4756(14) 0.0764(22) 0.548(10)
O16_4 O 0.468(2) 0.050(3) 0.545(13)
O18_4 O 0.5155(10) 0.1755(8) 0.474(6)
O20_4 O 0.5234(10) 0.1595(8) 0.800(5)
O21_4 O 0.4593(10) 0.1159(7) 0.915(5)
Co11_4 Co 0.4785(3) 0.3279(5) 0.974(3)
H1_4 H 0.483118 0.25616 0.660758
H3_4 H 0.410894 0.103293 0.684064
H4_4 H 0.4146 0.0683482 0.0222933
Co2_5 Co 0.6665(4) 0.4796(3) 0.019(3)
C1_5 C 0.7940(11) 0.4891(8) 0.255(5)
C3_5 C 0.7749(7) 0.4955(5) 0.122(5)
C5_5 C 0.7309(8) 0.4984(6) 0.067(5)
C7_5 C 0.7485(8) 0.4926(6) 0.189(4)
O1_5 O 0.7862(13) 0.4818(10) 0.431(6)
O3_5 O 0.8179(10) 0.4911(8) 0.192(6)
O5_5 O 0.7045(10) 0.4955(8) 0.134(5)
Co5_5 Co 0.6994(4) 0.5182(3) 0.355(3)
Co6_5 Co 0.8516(5) 0.4855(3) 0.311(3)
Co9_5 Co 0.8130(5) 0.4798(3) 0.647(3)
O17_5 O 0.6377(16) 0.4528(13) 0.235(6)
O24_5 O 0.6692(9) 0.5198(7) 0.147(6)
O25_5 O 0.6595(9) 0.6298(7) 0.236(5)
H2_5 H 0.741511 0.485749 0.338889
C2_5 C 0.7206(11) 0.5134(8) 0.745(5)
C4_5 C 0.7397(7) 0.5071(5) 0.877(5)
C6_5 C 0.7837(8) 0.5042(6) 0.933(5)
C8_5 C 0.7661(8) 0.5100(6) 0.810(4)
O2_5 O 0.7283(13) 0.5206(10) 0.569(5)
O4_5 O 0.6968(10) 0.5116(8) 0.808(6)
O6_5 O 0.8100(10) 0.5071(8) 0.866(5)
C9_5 C 0.6812(9) 0.6338(7) 0.617(5)
C10_5 C 0.6648(9) 0.5405(7) 0.089(5)
C11_5 C 0.6769(7) 0.6095(5) 0.480(4)
C12_5 C 0.6691(7) 0.5648(5) 0.227(4)
C13_5 C 0.6798(7) 0.5658(5) 0.412(4)
C14_5 C 0.6663(7) 0.6086(5) 0.294(4)
C15_5 C 0.6838(8) 0.5882(6) 0.538(4)
C16_5 C 0.6623(8) 0.5862(6) 0.168(4)
O7_5 O 0.6895(12) 0.6338(10) 0.791(5)
O11_5 O 0.6865(9) 0.5444(7) 0.471(5)
O13_5 O 0.666(5) 0.437(3) 0.895(13)
C17_5 C 0.644(4) 0.414(2) 0.927(10)
O14_5 O 0.621(5) 0.391(3) 0.959(13)
Co3_5 Co 0.6613(5) 0.5161(4) 0.692(3)
O15_5 O 0.619(4) 0.516(2) 0.551(13)
C18_5 C 0.6009(26) 0.5244(14) 0.548(10)
O16_5 O 0.583(4) 0.532(2) 0.545(13)
O18_5 O 0.6601(13) 0.4845(10) 0.474(6)
O20_5 O 0.6362(13) 0.4766(10) 0.800(5)
O21_5 O 0.6567(12) 0.5407(10) 0.915(5)
Co11_5 Co 0.8495(6) 0.5215(3) 0.974(3)
H1_5 H 0.773042 0.516882 0.660758
H3_5 H 0.692399 0.589106 0.684064
H4_5 H 0.653748 0.5854 0.0222933
Co2_6 Co 0.8132(3) 0.3335(4) 0.019(3)
C1_6 C 0.6952(7) 0.2060(11) 0.255(5)
C3_6 C 0.7207(5) 0.2251(7) 0.122(5)
C5_6 C 0.7676(5) 0.2691(8) 0.067(5)
C7_6 C 0.7442(6) 0.2515(8) 0.189(4)
O1_6 O 0.6957(9) 0.2138(13) 0.431(6)
O3_6 O 0.6733(6) 0.1821(10) 0.192(6)
O5_6 O 0.7911(6) 0.2955(10) 0.134(5)
Co5_6 Co 0.8189(3) 0.3006(4) 0.355(3)
Co6_6 Co 0.6340(4) 0.1484(5) 0.311(3)
Co9_6 Co 0.6669(4) 0.1870(5) 0.647(3)
O17_6 O 0.8152(10) 0.3623(16) 0.235(6)
O24_6 O 0.8507(6) 0.3308(9) 0.147(6)
O25_6 O 0.9704(5) 0.3405(9) 0.236(5)
H2_6 H 0.744238 0.258489 0.338889
C2_6 C 0.7929(7) 0.2794(11) 0.745(5)
C4_6 C 0.7675(5) 0.2603(7) 0.877(5)
C6_6 C 0.7206(5) 0.2163(8) 0.933(5)
C8_6 C 0.7440(6) 0.2339(8) 0.810(4)
O2_6 O 0.7924(9) 0.2717(13) 0.569(5)
O4_6 O 0.8149(6) 0.3032(10) 0.808(6)
O6_6 O 0.6972(6) 0.1900(10) 0.866(5)
C9_6 C 0.9527(6) 0.3188(9) 0.617(5)
C10_6 C 0.8758(6) 0.3352(9) 0.089(5)
C11_6 C 0.9327(5) 0.3231(7) 0.480(4)
C12_6 C 0.8958(5) 0.3309(7) 0.227(4)
C13_6 C 0.8861(5) 0.3202(7) 0.412(4)
C14_6 C 0.9424(5) 0.3337(7) 0.294(4)
C15_6 C 0.9045(5) 0.3162(8) 0.538(4)
C16_6 C 0.9240(5) 0.3377(8) 0.168(4)
O7_6 O 0.9444(7) 0.3105(12) 0.791(5)
O11_6 O 0.8580(5) 0.3135(9) 0.471(5)
O13_6 O 0.772(4) 0.334(5) 0.895(13)
C17_6 C 0.771(3) 0.356(4) 0.927(10)
O14_6 O 0.771(4) 0.379(5) 0.959(13)
Co3_6 Co 0.8549(3) 0.3387(5) 0.692(3)
O15_6 O 0.898(3) 0.381(4) 0.551(13)
C18_6 C 0.9236(22) 0.3991(26) 0.548(10)
O16_6 O 0.950(3) 0.417(4) 0.545(13)
O18_6 O 0.8245(8) 0.3399(13) 0.474(6)
O20_6 O 0.8405(8) 0.3638(13) 0.800(5)
O21_6 O 0.8841(7) 0.3433(12) 0.915(5)
Co11_6 Co 0.6721(5) 0.1505(6) 0.974(3)
H1_6 H 0.74384 0.226958 0.660758
H3_6 H 0.896707 0.307601 0.684064
H4_6 H 0.931652 0.346252 0.0222933
Co2_7 Co 0.1870(3) 0.5202(3) 0.353(3)
C1_7 C 0.1775(8) 0.6382(7) 0.589(5)
C2_7 C 0.1532(8) 0.5405(7) 0.079(5)
C3_7 C 0.1711(5) 0.6127(5) 0.456(5)
C4_7 C 0.1595(5) 0.5659(5) 0.211(5)
C5_7 C 0.1682(6) 0.5658(5) 0.401(5)
C6_7 C 0.1624(6) 0.6128(5) 0.267(5)
C7_7 C 0.1740(6) 0.5892(6) 0.523(4)
C8_7 C 0.1566(6) 0.5894(6) 0.144(4)
O1_7 O 0.1848(10) 0.6377(9) 0.765(6)
O3_7 O 0.1755(8) 0.6601(6) 0.526(6)
O4_7 O 0.1550(8) 0.5185(6) 0.142(6)
O5_7 O 0.1711(8) 0.5423(6) 0.468(5)
O6_7 O 0.1595(8) 0.6362(6) 0.200(5)
O7_7 O 0.0328(10) 0.3890(7) 0.125(5)
O13_7 O 0.229(3) 0.562(4) 0.229(13)
C17_7 C 0.252(2) 0.563(3) 0.261(10)
O14_7 O 0.275(3) 0.563(4) 0.293(13)
Co3_7 Co 0.1505(4) 0.4785(3) 0.026(3)
Co5_7 Co 0.1484(3) 0.5145(3) 0.689(3)
Co6_7 Co 0.1811(3) 0.6994(4) 0.645(3)
Co9_7 Co 0.1868(3) 0.6665(4) 0.981(3)
O17_7 O 0.2138(13) 0.5182(10) 0.569(6)
O20_7 O 0.1900(10) 0.4929(8) 0.134(5)
O21_7 O 0.1259(10) 0.4493(7) 0.249(5)
O24_7 O 0.1468(7) 0.4827(6) 0.481(6)
Co11_7 Co 0.1451(3) 0.6613(5) 0.308(3)
H2_7 H 0.180918 0.589095 0.672223
H3_7 H 0.0775602 0.436626 0.0173975
O2_7 O 0.1460(10) 0.5410(9) 0.903(5)
C9_7 C 0.0328(7) 0.3807(6) 0.951(5)
C10_7 C 0.1261(7) 0.4576(6) 0.423(5)
C11_7 C 0.0571(5) 0.4007(5) 0.814(4)
C12_7 C 0.1018(5) 0.4376(5) 0.561(4)
C13_7 C 0.1008(5) 0.4473(5) 0.746(4)
C14_7 C 0.0580(5) 0.3910(5) 0.628(4)
C15_7 C 0.0784(6) 0.4289(5) 0.872(4)
C16_7 C 0.0804(6) 0.4094(5) 0.502(4)
O11_7 O 0.1222(7) 0.4754(5) 0.805(5)
O15_7 O 0.150(2) 0.436(3) 0.885(13)
C18_7 C 0.1422(14) 0.4098(22) 0.882(10)
O16_7 O 0.134(2) 0.384(3) 0.879(13)
O18_7 O 0.1821(10) 0.5089(8) 0.808(6)
H1_7 H 0.149785 0.589494 0.994091
H4_7 H 0.081267 0.401682 0.355627
Co2_8 Co 0.3331(4) 0.8130(3) 0.353(3)
C1_8 C 0.4606(11) 0.8225(8) 0.589(5)
C2_8 C 0.3872(11) 0.8468(8) 0.079(5)
C3_8 C 0.4415(7) 0.8289(5) 0.456(5)
C4_8 C 0.4063(7) 0.8405(5) 0.211(5)
C5_8 C 0.3975(8) 0.8318(6) 0.401(5)
C6_8 C 0.4503(8) 0.8376(6) 0.267(5)
C7_8 C 0.4151(8) 0.8260(6) 0.523(4)
C8_8 C 0.4327(8) 0.8434(6) 0.144(4)
O1_8 O 0.4528(13) 0.8152(10) 0.765(6)
O3_8 O 0.4845(10) 0.8245(8) 0.526(6)
O4_8 O 0.3634(10) 0.8450(8) 0.142(6)
O5_8 O 0.3711(10) 0.8289(8) 0.468(5)
O6_8 O 0.4766(10) 0.8405(8) 0.200(5)
O7_8 O 0.3561(12) 0.9672(10) 0.125(5)
O13_8 O 0.332(5) 0.771(3) 0.229(13)
C17_8 C 0.310(4) 0.748(2) 0.261(10)
O14_8 O 0.287(5) 0.725(3) 0.293(13)
Co3_8 Co 0.3279(5) 0.8495(4) 0.026(3)
Co5_8 Co 0.3660(4) 0.8516(3) 0.689(3)
Co6_8 Co 0.5182(5) 0.8189(3) 0.645(3)
Co9_8 Co 0.4796(5) 0.8132(3) 0.981(3)
O17_8 O 0.3043(16) 0.7862(13) 0.569(6)
O20_8 O 0.3028(13) 0.8100(10) 0.134(5)
O21_8 O 0.3233(12) 0.8741(10) 0.249(5)
O24_8 O 0.3358(9) 0.8532(7) 0.481(6)
Co11_8 Co 0.5161(6) 0.8549(3) 0.308(3)
H2_8 H 0.408178 0.819082 0.672223
H3_8 H 0.359066 0.92244 0.0173975
O2_8 O 0.3949(13) 0.8540(10) 0.903(5)
C9_8 C 0.3478(9) 0.9672(7) 0.951(5)
C10_8 C 0.3314(9) 0.8739(7) 0.423(5)
C11_8 C 0.3435(7) 0.9429(5) 0.814(4)
C12_8 C 0.3357(7) 0.8982(5) 0.561(4)
C13_8 C 0.3464(7) 0.8992(5) 0.746(4)
C14_8 C 0.3329(7) 0.9420(5) 0.628(4)
C15_8 C 0.3504(8) 0.9216(6) 0.872(4)
C16_8 C 0.3289(8) 0.9196(6) 0.502(4)
O11_8 O 0.3531(9) 0.8778(7) 0.805(5)
O15_8 O 0.285(4) 0.850(2) 0.885(13)
C18_8 C 0.2675(26) 0.8578(14) 0.882(10)
O16_8 O 0.249(4) 0.866(2) 0.879(13)
O18_8 O 0.3267(13) 0.8179(10) 0.808(6)
H1_8 H 0.439709 0.850215 0.994091
H4_8 H 0.320415 0.918733 0.355627
Co2_9 Co 0.4798(3) 0.6669(4) 0.353(3)
C1_9 C 0.3618(7) 0.5394(11) 0.589(5)
C2_9 C 0.4595(7) 0.6128(11) 0.079(5)
C3_9 C 0.3873(5) 0.5585(7) 0.456(5)
C4_9 C 0.4341(5) 0.5937(7) 0.211(5)
C5_9 C 0.4342(5) 0.6025(8) 0.401(5)
C6_9 C 0.3872(5) 0.5497(8) 0.267(5)
C7_9 C 0.4108(6) 0.5849(8) 0.523(4)
C8_9 C 0.4106(6) 0.5673(8) 0.144(4)
O1_9 O 0.3623(9) 0.5472(13) 0.765(6)
O3_9 O 0.3399(6) 0.5155(10) 0.526(6)
O4_9 O 0.4815(6) 0.6366(10) 0.142(6)
O5_9 O 0.4577(6) 0.6289(10) 0.468(5)
O6_9 O 0.3638(6) 0.5234(10) 0.200(5)
O7_9 O 0.6110(7) 0.6439(12) 0.125(5)
O13_9 O 0.438(4) 0.668(5) 0.229(13)
C17_9 C 0.437(3) 0.690(4) 0.261(10)
O14_9 O 0.437(4) 0.713(5) 0.293(13)
Co3_9 Co 0.5215(3) 0.6721(5) 0.026(3)
Co5_9 Co 0.4855(3) 0.6340(4) 0.689(3)
Co6_9 Co 0.3006(4) 0.4818(5) 0.645(3)
Co9_9 Co 0.3335(4) 0.5204(5) 0.981(3)
O17_9 O 0.4818(10) 0.6957(16) 0.569(6)
O20_9 O 0.5071(8) 0.6972(13) 0.134(5)
O21_9 O 0.5507(7) 0.6767(12) 0.249(5)
O24_9 O 0.5173(6) 0.6642(9) 0.481(6)
Co11_9 Co 0.3387(5) 0.4839(6) 0.308(3)
H2_9 H 0.410905 0.591822 0.672223
H3_9 H 0.563374 0.640934 0.0173975
O2_9 O 0.4590(9) 0.6051(13) 0.903(5)
C9_9 C 0.6193(6) 0.6522(9) 0.951(5)
C10_9 C 0.5424(6) 0.6686(9) 0.423(5)
C11_9 C 0.5993(5) 0.6565(7) 0.814(4)
C12_9 C 0.5624(5) 0.6643(7) 0.561(4)
C13_9 C 0.5527(5) 0.6536(7) 0.746(4)
C14_9 C 0.6090(5) 0.6671(7) 0.628(4)
C15_9 C 0.5711(5) 0.6496(8) 0.872(4)
C16_9 C 0.5906(5) 0.6711(8) 0.502(4)
O11_9 O 0.5246(5) 0.6469(9) 0.805(5)
O15_9 O 0.564(3) 0.715(4) 0.885(13)
C18_9 C 0.5902(22) 0.7325(26) 0.882(10)
O16_9 O 0.616(3) 0.751(4) 0.879(13)
O18_9 O 0.4911(8) 0.6733(13) 0.808(6)
H1_9 H 0.410506 0.560291 0.994091
H4_9 H 0.598318 0.679585 0.355627
C10_10 C 0.2072(7) 0.2091(6) 0.244(5)
C12_10 C 0.2315(5) 0.2291(5) 0.106(4)
C14_10 C 0.2753(5) 0.2757(5) 0.039(4)
C16_10 C 0.2529(6) 0.2573(5) 0.165(4)
O8 O 0.2074(10) 0.2174(7) 0.418(5)
O10 O 0.1865(7) 0.1840(6) 0.186(6)
O12 O 0.2965(7) 0.3037(5) 0.097(5)
O19 O 0.1622(8) 0.1244(6) 0.199(5)
Co12 Co 0.3235(3) 0.3081(3) 0.3499(19)
Co13_4 Co 0.3179(4) 0.3432(3) 0.0166(19)
H4_10 H 0.252066 0.264985 0.31104
C1_10 C 0.1558(8) 0.0285(7) 0.078(5)
C2_10 C 0.1801(8) 0.1262(7) 0.588(5)
C3_10 C 0.1622(5) 0.0540(5) 0.211(5)
C4_10 C 0.1738(5) 0.1008(5) 0.456(5)
C5_10 C 0.1651(6) 0.1009(5) 0.266(5)
C6_10 C 0.1709(6) 0.0539(5) 0.400(5)
C7_10 C 0.1593(6) 0.0775(6) 0.144(4)
C8_10 C 0.1767(6) 0.0773(6) 0.523(4)
O2_10 O 0.1873(10) 0.1257(9) 0.764(5)
O4_10 O 0.1783(8) 0.1482(6) 0.525(6)
C9_10 C 0.3005(7) 0.2860(6) 0.716(5)
C11_10 C 0.2762(5) 0.2660(5) 0.853(4)
C13_10 C 0.2325(5) 0.2194(5) 0.921(4)
C15_10 C 0.2549(6) 0.2378(5) 0.795(4)
O7_10 O 0.3005(10) 0.2777(7) 0.542(5)
O9_4 O 0.3212(7) 0.3112(6) 0.773(6)
O11_10 O 0.2111(7) 0.1913(5) 0.862(5)
O13_10 O 0.104(3) 0.105(4) 0.438(13)
C17_10 C 0.081(2) 0.104(3) 0.406(10)
O14_10 O 0.058(3) 0.104(4) 0.374(13)
O15_10 O 0.183(2) 0.231(3) 0.782(13)
C18_10 C 0.1911(14) 0.2569(22) 0.785(10)
O16_10 O 0.199(2) 0.283(3) 0.788(13)
O22_4 O 0.3233(9) 0.3455(7) 0.440(6)
O23_4 O 0.3555(6) 0.3433(9) 0.106(6)
O26_4 O 0.3630(5) 0.3261(9) 0.430(5)
Co14_4 Co 0.3586(3) 0.3487(4) 0.6832(19)
H1_10 H 0.183549 0.0771729 0.672575
H3_10 H 0.255773 0.23004 0.649269
H2_10 H 0.152416 0.0775714 0.994444
C10_11 C 0.0019(9) 0.7928(7) 0.244(5)
C14_11 C 0.0004(7) 0.7247(5) 0.039(4)
C16_11 C 0.0044(8) 0.7471(6) 0.165(4)
O8_2 O 0.0100(12) 0.7926(10) 0.418(5)
O12_2 O 0.0072(9) 0.7035(7) 0.097(5)
Co13_5 Co 0.0252(5) 0.6821(4) 0.0166(19)
H4_11 H 0.0129187 0.747934 0.31104
O13_11 O 0.001(5) 0.896(3) 0.438(13)
C17_11 C 0.023(4) 0.919(2) 0.406(10)
O14_11 O 0.046(5) 0.942(3) 0.374(13)
O15_11 O 0.048(4) 0.817(2) 0.782(13)
C18_11 C 0.0658(26) 0.8089(14) 0.785(10)
O16_11 O 0.084(4) 0.801(2) 0.788(13)
O22_5 O 0.0221(11) 0.6767(9) 0.440(6)
C12_11 C 0.9976(7) 0.7685(5) 0.106(4)
O10_2 O 0.9975(9) 0.8135(7) 0.186(6)
O19_2 O 0.9622(10) 0.8378(8) 0.199(5)
Co12_2 Co 0.9846(4) 0.6765(3) 0.3499(19)
C1_11 C 0.8727(11) 0.8442(8) 0.078(5)
C2_11 C 0.9461(11) 0.8199(8) 0.588(5)
C3_11 C 0.8918(7) 0.8378(5) 0.211(5)
C4_11 C 0.9270(7) 0.8262(5) 0.456(5)
C5_11 C 0.9358(8) 0.8349(6) 0.266(5)
C6_11 C 0.8830(8) 0.8291(6) 0.400(5)
C7_11 C 0.9182(8) 0.8407(6) 0.144(4)
C8_11 C 0.9006(8) 0.8233(6) 0.523(4)
O2_11 O 0.9384(13) 0.8127(10) 0.764(5)
O4_11 O 0.9699(10) 0.8217(8) 0.525(6)
C9_11 C 0.9855(9) 0.6995(7) 0.716(5)
C11_11 C 0.9898(7) 0.7238(5) 0.853(4)
C13_11 C 0.9869(7) 0.7675(5) 0.921(4)
C15_11 C 0.9829(8) 0.7451(6) 0.795(4)
O7_11 O 0.9772(12) 0.6995(10) 0.542(5)
O9_5 O 0.9900(9) 0.6788(7) 0.773(6)
O11_11 O 0.9802(9) 0.7889(7) 0.862(5)
O23_5 O 0.9879(11) 0.6445(6) 0.106(6)
O26_5 O 0.9632(10) 0.6370(5) 0.430(5)
Co14_5 Co 0.9902(5) 0.6414(3) 0.6832(19)
H1_11 H 0.893624 0.816451 0.672575
H3_11 H 0.974267 0.744227 0.649269
H2_11 H 0.925156 0.847584 0.994444
C12_12 C 0.7709(5) 0.0024(7) 0.106(4)
O10_3 O 0.8160(6) 0.0025(9) 0.186(6)
O19_3 O 0.8756(6) 0.0378(10) 0.199(5)
Co12_3 Co 0.6919(3) 0.0154(4) 0.3499(19)
C1_12 C 0.9715(7) 0.1273(11) 0.078(5)
C2_12 C 0.8738(7) 0.0539(11) 0.588(5)
C3_12 C 0.9460(5) 0.1082(7) 0.211(5)
C4_12 C 0.8992(5) 0.0730(7) 0.456(5)
C5_12 C 0.8991(5) 0.0642(8) 0.266(5)
C6_12 C 0.9461(5) 0.1170(8) 0.400(5)
C7_12 C 0.9225(6) 0.0818(8) 0.144(4)
C8_12 C 0.9227(6) 0.0994(8) 0.523(4)
O2_12 O 0.8743(9) 0.0616(13) 0.764(5)
O4_12 O 0.8518(6) 0.0301(10) 0.525(6)
C9_12 C 0.7140(6) 0.0145(9) 0.716(5)
C11_12 C 0.7340(5) 0.0102(7) 0.853(4)
C13_12 C 0.7806(5) 0.0131(7) 0.921(4)
C15_12 C 0.7622(5) 0.0171(8) 0.795(4)
O7_12 O 0.7223(7) 0.0228(12) 0.542(5)
O9_6 O 0.6888(6) 0.0100(9) 0.773(6)
O11_12 O 0.8087(5) 0.0198(9) 0.862(5)
O23_6 O 0.6567(9) 0.0121(11) 0.106(6)
O26_6 O 0.6739(9) 0.0368(10) 0.430(5)
Co14_6 Co 0.6513(4) 0.0098(5) 0.6832(19)
H1_12 H 0.922827 0.106376 0.672575
H3_12 H 0.76996 0.0257327 0.649269
H2_12 H 0.922429 0.0748442 0.994444
C10_12 C 0.7909(6) 0.9981(9) 0.244(5)
C14_12 C 0.7243(5) 0.9996(7) 0.039(4)
C16_12 C 0.7427(5) 0.9956(8) 0.165(4)
O8_3 O 0.7826(7) 0.9900(12) 0.418(5)
O12_3 O 0.6963(5) 0.9928(9) 0.097(5)
Co13_6 Co 0.6568(3) 0.9748(5) 0.0166(19)
H4_12 H 0.735015 0.987081 0.31104
O13_12 O 0.895(4) 0.999(5) 0.438(13)
C17_12 C 0.896(3) 0.977(4) 0.406(10)
O14_12 O 0.896(4) 0.954(5) 0.374(13)
O15_12 O 0.769(3) 0.952(4) 0.782(13)
C18_12 C 0.7431(22) 0.9342(26) 0.785(10)
O16_12 O 0.717(3) 0.916(4) 0.788(13)
O22_6 O 0.6545(7) 0.9779(11) 0.440(6)
O8_4 O 0.5407(10) 0.8841(7) 0.085(5)
C2_13 C 0.5134(8) 0.7929(7) 0.255(5)
C4_13 C 0.5071(5) 0.7675(5) 0.123(5)
C6_13 C 0.5042(6) 0.7206(5) 0.067(5)
C8_13 C 0.5100(6) 0.7440(6) 0.190(4)
O2_13 O 0.5206(10) 0.7924(9) 0.431(5)
O4_13 O 0.5116(8) 0.8149(6) 0.192(6)
C9_13 C 0.6338(7) 0.9527(6) 0.383(5)
C10_13 C 0.5405(7) 0.8758(6) 0.911(5)
C11_13 C 0.6095(5) 0.9327(5) 0.520(4)
C12_13 C 0.5648(5) 0.8958(5) 0.773(4)
C13_13 C 0.5658(5) 0.8861(5) 0.588(4)
C14_13 C 0.6086(5) 0.9424(5) 0.706(4)
C15_13 C 0.5882(6) 0.9045(5) 0.462(4)
C16_13 C 0.5862(6) 0.9240(5) 0.832(4)
O7_13 O 0.6338(10) 0.9444(7) 0.209(5)
O10_4 O 0.5198(7) 0.8507(6) 0.853(6)
O11_13 O 0.5444(7) 0.8580(5) 0.529(5)
O12_4 O 0.6298(7) 0.9704(5) 0.764(5)
O13_13 O 0.437(3) 0.772(4) 0.105(13)
C17_13 C 0.414(2) 0.771(3) 0.073(10)
O14_13 O 0.391(3) 0.771(4) 0.041(13)
O15_13 O 0.516(2) 0.898(3) 0.449(13)
C18_13 C 0.5244(14) 0.9236(22) 0.452(10)
O16_13 O 0.532(2) 0.950(3) 0.455(13)
O19_4 O 0.4955(8) 0.7911(6) 0.866(5)
H1_13 H 0.516882 0.74384 0.339242
H3_13 H 0.589106 0.896707 0.315936
H4_13 H 0.5854 0.931652 0.977707
C1_13 C 0.4891(8) 0.6952(7) 0.745(5)
C3_13 C 0.4955(5) 0.7207(5) 0.878(5)
C5_13 C 0.4984(6) 0.7676(5) 0.933(5)
C7_13 C 0.4926(6) 0.7442(6) 0.811(4)
H2_13 H 0.485749 0.744238 0.661111
O8_5 O 0.3433(12) 0.4593(10) 0.085(5)
C2_14 C 0.2794(11) 0.4866(8) 0.255(5)
C4_14 C 0.2603(7) 0.4929(5) 0.123(5)
C6_14 C 0.2163(8) 0.4958(6) 0.067(5)
C8_14 C 0.2339(8) 0.4900(6) 0.190(4)
O2_14 O 0.2717(13) 0.4794(10) 0.431(5)
O4_14 O 0.3032(10) 0.4884(8) 0.192(6)
C9_14 C 0.3188(9) 0.3662(7) 0.383(5)
C10_14 C 0.3352(9) 0.4595(7) 0.911(5)
C11_14 C 0.3231(7) 0.3905(5) 0.520(4)
C12_14 C 0.3309(7) 0.4352(5) 0.773(4)
C13_14 C 0.3202(7) 0.4342(5) 0.588(4)
C14_14 C 0.3337(7) 0.3914(5) 0.706(4)
C15_14 C 0.3162(8) 0.4118(6) 0.462(4)
C16_14 C 0.3377(8) 0.4138(6) 0.832(4)
O7_14 O 0.3105(12) 0.3662(10) 0.209(5)
O10_5 O 0.3308(9) 0.4802(7) 0.853(6)
O11_14 O 0.3135(9) 0.4556(7) 0.529(5)
O12_5 O 0.3405(9) 0.3702(7) 0.764(5)
O13_14 O 0.334(5) 0.563(3) 0.105(13)
C17_14 C 0.356(4) 0.586(2) 0.073(10)
O14_14 O 0.379(5) 0.609(3) 0.041(13)
O15_14 O 0.381(4) 0.484(2) 0.449(13)
C18_14 C 0.3991(26) 0.4756(14) 0.452(10)
O16_14 O 0.417(4) 0.468(2) 0.455(13)
O19_5 O 0.2955(10) 0.5045(8) 0.866(5)
H1_14 H 0.226958 0.483118 0.339242
H3_14 H 0.307601 0.410894 0.315936
H4_14 H 0.346252 0.4146 0.977707
C1_14 C 0.2060(11) 0.5109(8) 0.745(5)
C3_14 C 0.2251(7) 0.5045(5) 0.878(5)
C5_14 C 0.2691(8) 0.5016(6) 0.933(5)
C7_14 C 0.2515(8) 0.5074(6) 0.811(4)
H2_14 H 0.258489 0.514251 0.661111
O8_6 O 0.1159(7) 0.6567(12) 0.085(5)
C2_15 C 0.2071(7) 0.7206(11) 0.255(5)
C4_15 C 0.2325(5) 0.7397(7) 0.123(5)
C6_15 C 0.2794(5) 0.7837(8) 0.067(5)
C8_15 C 0.2560(6) 0.7661(8) 0.190(4)
O2_15 O 0.2076(9) 0.7283(13) 0.431(5)
O4_15 O 0.1851(6) 0.6968(10) 0.192(6)
C9_15 C 0.0473(6) 0.6812(9) 0.383(5)
C10_15 C 0.1242(6) 0.6648(9) 0.911(5)
C11_15 C 0.0673(5) 0.6769(7) 0.520(4)
C12_15 C 0.1042(5) 0.6691(7) 0.773(4)
C13_15 C 0.1139(5) 0.6798(7) 0.588(4)
C14_15 C 0.0576(5) 0.6663(7) 0.706(4)
C15_15 C 0.0955(5) 0.6838(8) 0.462(4)
C16_15 C 0.0760(5) 0.6623(8) 0.832(4)
O7_15 O 0.0556(7) 0.6895(12) 0.209(5)
O10_6 O 0.1493(6) 0.6692(9) 0.853(6)
O11_15 O 0.1420(5) 0.6865(9) 0.529(5)
O12_6 O 0.0296(5) 0.6595(9) 0.764(5)
O13_15 O 0.228(4) 0.666(5) 0.105(13)
C17_15 C 0.229(3) 0.644(4) 0.073(10)
O14_15 O 0.229(4) 0.621(5) 0.041(13)
O15_15 O 0.102(3) 0.619(4) 0.449(13)
C18_15 C 0.0764(22) 0.6009(26) 0.452(10)
O16_15 O 0.050(3) 0.583(4) 0.455(13)
O19_6 O 0.2089(6) 0.7045(10) 0.866(5)
H1_15 H 0.25616 0.773042 0.339242
H3_15 H 0.103293 0.692399 0.315936
H4_15 H 0.0683482 0.653748 0.977707
C1_15 C 0.3048(7) 0.7940(11) 0.745(5)
C3_15 C 0.2793(5) 0.7749(7) 0.878(5)
C5_15 C 0.2324(5) 0.7309(8) 0.933(5)
C7_15 C 0.2558(6) 0.7485(8) 0.811(4)
H2_15 H 0.255762 0.741511 0.661111
O2_16 O 0.8540(10) 0.4590(9) 0.097(5)
C9_16 C 0.9672(7) 0.6193(6) 0.049(5)
C10_16 C 0.8739(7) 0.5424(6) 0.577(5)
C11_16 C 0.9429(5) 0.5993(5) 0.186(4)
C12_16 C 0.8982(5) 0.5624(5) 0.439(4)
C13_16 C 0.8992(5) 0.5527(5) 0.254(4)
C14_16 C 0.9420(5) 0.6090(5) 0.372(4)
C15_16 C 0.9216(6) 0.5711(5) 0.128(4)
C16_16 C 0.9196(6) 0.5906(5) 0.498(4)
O8_7 O 0.8741(10) 0.5507(7) 0.751(5)
O10_7 O 0.8532(7) 0.5173(6) 0.519(6)
O11_16 O 0.8778(7) 0.5246(5) 0.195(5)
O15_16 O 0.850(2) 0.564(3) 0.115(13)
C18_16 C 0.8578(14) 0.5902(22) 0.118(10)
O16_16 O 0.866(2) 0.616(3) 0.121(13)
O19_7 O 0.8289(8) 0.4577(6) 0.532(5)
H1_16 H 0.850215 0.410506 0.00590863
H4_16 H 0.918733 0.598318 0.644373
C1_16 C 0.8225(8) 0.3618(7) 0.411(5)
C2_16 C 0.8468(8) 0.4595(7) 0.921(5)
C3_16 C 0.8289(5) 0.3873(5) 0.544(5)
C4_16 C 0.8405(5) 0.4341(5) 0.789(5)
C5_16 C 0.8318(6) 0.4342(5) 0.599(5)
C6_16 C 0.8376(6) 0.3872(5) 0.733(5)
C7_16 C 0.8260(6) 0.4108(6) 0.477(4)
C8_16 C 0.8434(6) 0.4106(6) 0.856(4)
O4_16 O 0.8450(8) 0.4815(6) 0.858(6)
O7_16 O 0.9672(10) 0.6110(7) 0.875(5)
O13_16 O 0.771(3) 0.438(4) 0.771(13)
C17_16 C 0.748(2) 0.437(3) 0.739(10)
O14_16 O 0.725(3) 0.437(4) 0.707(13)
H2_16 H 0.819082 0.410905 0.327777
H3_16 H 0.92244 0.563374 0.982602
O2_17 O 0.6051(13) 0.1460(10) 0.097(5)
C9_17 C 0.6522(9) 0.0328(7) 0.049(5)
C10_17 C 0.6686(9) 0.1261(7) 0.577(5)
C11_17 C 0.6565(7) 0.0571(5) 0.186(4)
C12_17 C 0.6643(7) 0.1018(5) 0.439(4)
C13_17 C 0.6536(7) 0.1008(5) 0.254(4)
C14_17 C 0.6671(7) 0.0580(5) 0.372(4)
C15_17 C 0.6496(8) 0.0784(6) 0.128(4)
C16_17 C 0.6711(8) 0.0804(6) 0.498(4)
O8_8 O 0.6767(12) 0.1259(10) 0.751(5)
O10_8 O 0.6642(9) 0.1468(7) 0.519(6)
O11_17 O 0.6469(9) 0.1222(7) 0.195(5)
O15_17 O 0.715(4) 0.150(2) 0.115(13)
C18_17 C 0.7325(26) 0.1422(14) 0.118(10)
O16_17 O 0.751(4) 0.134(2) 0.121(13)
O19_8 O 0.6289(10) 0.1711(8) 0.532(5)
H1_17 H 0.560291 0.149785 0.00590863
H4_17 H 0.679585 0.081267 0.644373
C1_17 C 0.5394(11) 0.1775(8) 0.411(5)
C2_17 C 0.6128(11) 0.1532(8) 0.921(5)
C3_17 C 0.5585(7) 0.1711(5) 0.544(5)
C4_17 C 0.5937(7) 0.1595(5) 0.789(5)
C5_17 C 0.6025(8) 0.1682(6) 0.599(5)
C6_17 C 0.5497(8) 0.1624(6) 0.733(5)
C7_17 C 0.5849(8) 0.1740(6) 0.477(4)
C8_17 C 0.5673(8) 0.1566(6) 0.856(4)
O4_17 O 0.6366(10) 0.1550(8) 0.858(6)
O7_17 O 0.6439(12) 0.0328(10) 0.875(5)
O13_17 O 0.668(5) 0.229(3) 0.771(13)
C17_17 C 0.690(4) 0.252(2) 0.739(10)
O14_17 O 0.713(5) 0.275(3) 0.707(13)
H2_17 H 0.591822 0.180918 0.327777
H3_17 H 0.640934 0.0775602 0.982602
O2_18 O 0.5410(9) 0.3949(13) 0.097(5)
C9_18 C 0.3807(6) 0.3478(9) 0.049(5)
C10_18 C 0.4576(6) 0.3314(9) 0.577(5)
C11_18 C 0.4007(5) 0.3435(7) 0.186(4)
C12_18 C 0.4376(5) 0.3357(7) 0.439(4)
C13_18 C 0.4473(5) 0.3464(7) 0.254(4)
C14_18 C 0.3910(5) 0.3329(7) 0.372(4)
C15_18 C 0.4289(5) 0.3504(8) 0.128(4)
C16_18 C 0.4094(5) 0.3289(8) 0.498(4)
O8_9 O 0.4493(7) 0.3233(12) 0.751(5)
O10_9 O 0.4827(6) 0.3358(9) 0.519(6)
O11_18 O 0.4754(5) 0.3531(9) 0.195(5)
O15_18 O 0.436(3) 0.285(4) 0.115(13)
C18_18 C 0.4098(22) 0.2675(26) 0.118(10)
O16_18 O 0.384(3) 0.249(4) 0.121(13)
O19_9 O 0.5423(6) 0.3711(10) 0.532(5)
H1_18 H 0.589494 0.439709 0.00590863
H4_18 H 0.401682 0.320415 0.644373
C1_18 C 0.6382(7) 0.4606(11) 0.411(5)
C2_18 C 0.5405(7) 0.3872(11) 0.921(5)
C3_18 C 0.6127(5) 0.4415(7) 0.544(5)
C4_18 C 0.5659(5) 0.4063(7) 0.789(5)
C5_18 C 0.5658(5) 0.3975(8) 0.599(5)
C6_18 C 0.6128(5) 0.4503(8) 0.733(5)
C7_18 C 0.5892(6) 0.4151(8) 0.477(4)
C8_18 C 0.5894(6) 0.4327(8) 0.856(4)
O4_18 O 0.5185(6) 0.3634(10) 0.858(6)
O7_18 O 0.3890(7) 0.3561(12) 0.875(5)
O13_18 O 0.562(4) 0.332(5) 0.771(13)
C17_18 C 0.563(3) 0.310(4) 0.739(10)
O14_18 O 0.563(4) 0.287(5) 0.707(13)
H2_18 H 0.589095 0.408178 0.327777
H3_18 H 0.436626 0.359066 0.982602
loop_
_geom_bond_atom_site_label_1
_geom_bond_atom_site_label_2
_geom_bond_site_symmetry_1
_geom_bond_site_symmetry_2
Co9 O1 1_555 1_555
Co5 O2 1_555 1_555
Co2 O4 1_555 1_555
C1 C3 1_555 1_555
C2 C4 1_555 1_555
C3 C6 1_555 1_555
C4 C5 1_555 1_555
C5 C7 1_555 1_555
C6 C8 1_555 1_555
C7 C3 1_555 1_555
C8 C4 1_555 1_555
O2 C2 1_555 1_555
O3 C1 1_555 1_555
O4 C2 1_555 1_555
O5 Co2 1_555 1_555
O6 C6 1_555 1_555
C9 C11 1_555 1_555
C13 C15 1_555 1_555
C15 C11 1_555 1_555
O7 C9 1_555 1_555
O9 C9 1_555 1_555
O11 Co5 1_555 1_555
O13 Co2 1_555 1_555
C17 O13 1_555 1_555
O14 C17 1_555 1_555
Co3 O4 1_555 1_555
Co4 O7 1_555 1_555
O15 Co3 1_555 1_555
C18 O15 1_555 1_555
O16 C18 1_555 1_555
Co9 O6 1_555 1_555
O17 Co2 1_555 1_555
O18 Co5 1_555 1_555
O20 Co2 1_555 1_555
O21 Co3 1_555 1_555
O22 Co4 1_555 1_555
O23 Co4 1_555 1_555
O24 Co2 1_555 1_555
O25 Co4 1_555 1_555
O26 Co4 1_555 1_555
Co11 O3 1_555 1_555
Co14 O9 1_555 1_555
C5 O5 1_555 1_555
O6 Co11 1_555 1_555
C13 O11 1_555 1_555
O11 Co3 1_555 1_555
Co3 O18 1_555 1_555
Co3 O20 1_555 1_555
O22 Co14 1_555 1_555
O26 Co14 1_555 1_555
C8 H1 1_555 1_555
C15 H3 1_555 1_555
C10 C12 1_555 1_555
C14 C16 1_555 1_555
C16 C12 1_555 1_555
O21 C10 1_555 1_555
O25 C14 1_555 1_555
C10 O24 1_555 1_555
O25 Co13 1_555 1_555
C16 H4 1_555 1_555
Co9_2 O1_2 1_555 1_555
Co5_2 O2_2 1_555 1_555
C1_2 C3_2 1_555 1_555
C2_2 C4_2 1_555 1_555
C3_2 C6_2 1_555 1_555
C4_2 C5_2 1_555 1_555
C5_2 C7_2 1_555 1_555
C6_2 C8_2 1_555 1_555
C7_2 C3_2 1_555 1_555
C8_2 C4_2 1_555 1_555
O2_2 C2_2 1_555 1_555
O3_2 C1_2 1_555 1_555
O4_2 C2_2 1_555 1_555
O6_2 C6_2 1_555 1_555
C9_2 C11_2 1_555 1_555
C13_2 C15_2 1_555 1_555
C15_2 C11_2 1_555 1_555
O7_2 C9_2 1_555 1_555
O9_2 C9_2 1_555 1_555
O11_2 Co5_2 1_555 1_555
Co4_2 O7_2 1_555 1_555
Co6_2 O3_2 1_555 1_555
Co9_2 O6_2 1_555 1_555
O23_2 Co4_2 1_555 1_555
O26_2 Co4_2 1_555 1_555
Co11_2 O3_2 1_555 1_555
Co14_2 O9_2 1_555 1_555
C5_2 O5_2 1_555 1_555
O6_2 Co11_2 1_555 1_555
C13_2 O11_2 1_555 1_555
O26_2 Co14_2 1_555 1_555
C8_2 H1_2 1_555 1_555
C15_2 H3_2 1_555 1_555
O13_2 Co2_2 1_555 1_555
C17_2 O13_2 1_555 1_555
O14_2 C17_2 1_555 1_555
O15_2 Co3_2 1_555 1_555
C18_2 O15_2 1_555 1_555
O16_2 C18_2 1_555 1_555
O17_2 Co2_2 1_555 1_555
O20_2 Co2_2 1_555 1_555
O21_2 Co3_2 1_555 1_555
Co3_2 O18_2 1_555 1_555
Co3_2 O20_2 1_555 1_555
C14_2 C16_2 1_555 1_555
O21_2 C10_2 1_555 1_555
O25_2 C14_2 1_555 1_555
O25_2 Co13_2 1_555 1_555
C16_2 H4_2 1_555 1_555
O13_3 Co2_3 1_555 1_555
C17_3 O13_3 1_555 1_555
O14_3 C17_3 1_555 1_555
O15_3 Co3_3 1_555 1_555
C18_3 O15_3 1_555 1_555
O16_3 C18_3 1_555 1_555
O17_3 Co2_3 1_555 1_555
O20_3 Co2_3 1_555 1_555
O21_3 Co3_3 1_555 1_555
Co3_3 O18_3 1_555 1_555
Co3_3 O20_3 1_555 1_555
C14_3 C16_3 1_555 1_555
O21_3 C10_3 1_555 1_555
O25_3 C14_3 1_555 1_555
O25_3 Co13_3 1_555 1_555
C16_3 H4_3 1_555 1_555
Co9_3 O1_3 1_555 1_555
Co5_3 O2_3 1_555 1_555
C1_3 C3_3 1_555 1_555
C2_3 C4_3 1_555 1_555
C3_3 C6_3 1_555 1_555
C4_3 C5_3 1_555 1_555
C5_3 C7_3 1_555 1_555
C6_3 C8_3 1_555 1_555
C7_3 C3_3 1_555 1_555
C8_3 C4_3 1_555 1_555
O2_3 C2_3 1_555 1_555
O3_3 C1_3 1_555 1_555
O4_3 C2_3 1_555 1_555
O6_3 C6_3 1_555 1_555
C9_3 C11_3 1_555 1_555
C13_3 C15_3 1_555 1_555
C15_3 C11_3 1_555 1_555
O7_3 C9_3 1_555 1_555
O9_3 C9_3 1_555 1_555
O11_3 Co5_3 1_555 1_555
Co4_3 O7_3 1_555 1_555
Co9_3 O6_3 1_555 1_555
O23_3 Co4_3 1_555 1_555
O26_3 Co4_3 1_555 1_555
Co11_3 O3_3 1_555 1_555
Co14_3 O9_3 1_555 1_555
C5_3 O5_3 1_555 1_555
O6_3 Co11_3 1_555 1_555
C13_3 O11_3 1_555 1_555
O26_3 Co14_3 1_555 1_555
C8_3 H1_3 1_555 1_555
C15_3 H3_3 1_555 1_555
C1_4 C3_4 1_555 1_555
C5_4 C7_4 1_555 1_555
C7_4 C3_4 1_555 1_555
O1_4 C1_4 1_555 1_555
O3_4 C1_4 1_555 1_555
O5_4 Co2_4 1_555 1_555
Co5_4 O5_4 1_555 1_555
Co6_4 O3_4 1_555 1_555
Co9_4 O1_4 1_555 1_555
O17_4 Co2_4 1_555 1_555
O24_4 Co2_4 1_555 1_555
C5_4 O5_4 1_555 1_555
Co5_4 O24_4 1_555 1_555
C7_4 H2_4 1_555 1_555
Co5_4 O2_4 1_555 1_555
C2_4 C4_4 1_555 1_555
C6_4 C8_4 1_555 1_555
C8_4 C4_4 1_555 1_555
O2_4 C2_4 1_555 1_555
O4_4 C2_4 1_555 1_555
O6_4 C6_4 1_555 1_555
C9_4 C11_4 1_555 1_555
C10_4 C12_4 1_555 1_555
C11_4 C14_4 1_555 1_555
C12_4 C13_4 1_555 1_555
C13_4 C15_4 1_555 1_555
C14_4 C16_4 1_555 1_555
C15_4 C11_4 1_555 1_555
C16_4 C12_4 1_555 1_555
O7_4 C9_4 1_555 1_555
O22_3 C9_4 1_555 1_555
O11_4 Co5_4 1_555 1_555
O25_4 C14_4 1_555 1_555
C17_4 O13_4 1_555 1_555
O14_4 C17_4 1_555 1_555
Co3_4 O4_4 1_555 1_555
Co13_3 O7_4 1_555 1_555
O15_4 Co3_4 1_555 1_555
C18_4 O15_4 1_555 1_555
O16_4 C18_4 1_555 1_555
Co9_4 O6_4 1_555 1_555
O18_4 Co5_4 1_555 1_555
O21_4 Co3_4 1_555 1_555
O6_4 Co11_4 1_555 1_555
C10_4 O24_4 1_555 1_555
C13_4 O11_4 1_555 1_555
O11_4 Co3_4 1_555 1_555
Co3_4 O18_4 1_555 1_555
Co3_4 O20_4 1_555 1_555
C8_4 H1_4 1_555 1_555
C15_4 H3_4 1_555 1_555
C16_4 H4_4 1_555 1_555
C1_5 C3_5 1_555 1_555
C5_5 C7_5 1_555 1_555
C7_5 C3_5 1_555 1_555
O1_5 C1_5 1_555 1_555
O3_5 C1_5 1_555 1_555
O5_5 Co2_5 1_555 1_555
Co5_5 O5_5 1_555 1_555
Co6_5 O3_5 1_555 1_555
Co9_5 O1_5 1_555 1_555
O17_5 Co2_5 1_555 1_555
O24_5 Co2_5 1_555 1_555
C5_5 O5_5 1_555 1_555
Co5_5 O24_5 1_555 1_555
C7_5 H2_5 1_555 1_555
Co5_5 O2_5 1_555 1_555
C2_5 C4_5 1_555 1_555
C6_5 C8_5 1_555 1_555
C8_5 C4_5 1_555 1_555
O2_5 C2_5 1_555 1_555
O4_5 C2_5 1_555 1_555
O6_5 C6_5 1_555 1_555
C9_5 C11_5 1_555 1_555
C10_5 C12_5 1_555 1_555
C11_5 C14_5 1_555 1_555
C12_5 C13_5 1_555 1_555
C13_5 C15_5 1_555 1_555
C14_5 C16_5 1_555 1_555
C15_5 C11_5 1_555 1_555
C16_5 C12_5 1_555 1_555
O7_5 C9_5 1_555 1_555
O22 C9_5 1_555 1_555
O11_5 Co5_5 1_555 1_555
O25_5 C14_5 1_555 1_555
C17_5 O13_5 1_555 1_555
O14_5 C17_5 1_555 1_555
Co3_5 O4_5 1_555 1_555
Co13 O7_5 1_555 1_555
O15_5 Co3_5 1_555 1_555
C18_5 O15_5 1_555 1_555
O16_5 C18_5 1_555 1_555
Co9_5 O6_5 1_555 1_555
O18_5 Co5_5 1_555 1_555
O21_5 Co3_5 1_555 1_555
O23 Co13 1_555 1_555
O6_5 Co11_5 1_555 1_555
C10_5 O24_5 1_555 1_555
C13_5 O11_5 1_555 1_555
O11_5 Co3_5 1_555 1_555
O25_5 Co14 1_555 1_555
Co3_5 O18_5 1_555 1_555
Co3_5 O20_5 1_555 1_555
C8_5 H1_5 1_555 1_555
C15_5 H3_5 1_555 1_555
C16_5 H4_5 1_555 1_555
C1_6 C3_6 1_555 1_555
C5_6 C7_6 1_555 1_555
C7_6 C3_6 1_555 1_555
O1_6 C1_6 1_555 1_555
O3_6 C1_6 1_555 1_555
O5_6 Co2_6 1_555 1_555
Co5_6 O5_6 1_555 1_555
Co6_6 O3_6 1_555 1_555
Co9_6 O1_6 1_555 1_555
O17_6 Co2_6 1_555 1_555
O24_6 Co2_6 1_555 1_555
C5_6 O5_6 1_555 1_555
Co5_6 O24_6 1_555 1_555
C7_6 H2_6 1_555 1_555
Co5_6 O2_6 1_555 1_555
C2_6 C4_6 1_555 1_555
C6_6 C8_6 1_555 1_555
C8_6 C4_6 1_555 1_555
O2_6 C2_6 1_555 1_555
O4_6 C2_6 1_555 1_555
O6_6 C6_6 1_555 1_555
C9_6 C11_6 1_555 1_555
C10_6 C12_6 1_555 1_555
C11_6 C14_6 1_555 1_555
C12_6 C13_6 1_555 1_555
C13_6 C15_6 1_555 1_555
C14_6 C16_6 1_555 1_555
C15_6 C11_6 1_555 1_555
C16_6 C12_6 1_555 1_555
O7_6 C9_6 1_555 1_555
O22_2 C9_6 1_555 1_555
O11_6 Co5_6 1_555 1_555
O25_6 C14_6 1_555 1_555
C17_6 O13_6 1_555 1_555
O14_6 C17_6 1_555 1_555
Co3_6 O4_6 1_555 1_555
Co13_2 O7_6 1_555 1_555
O15_6 Co3_6 1_555 1_555
C18_6 O15_6 1_555 1_555
O16_6 C18_6 1_555 1_555
Co9_6 O6_6 1_555 1_555
O18_6 Co5_6 1_555 1_555
O21_6 Co3_6 1_555 1_555
O6_6 Co11_6 1_555 1_555
C10_6 O24_6 1_555 1_555
C13_6 O11_6 1_555 1_555
O11_6 Co3_6 1_555 1_555
Co3_6 O18_6 1_555 1_555
Co3_6 O20_6 1_555 1_555
C8_6 H1_6 1_555 1_555
C15_6 H3_6 1_555 1_555
C16_6 H4_6 1_555 1_555
Co2_7 O4_7 1_555 1_555
C1_7 C3_7 1_555 1_555
C2_7 C4_7 1_555 1_555
C3_7 C6_7 1_555 1_555
C4_7 C5_7 1_555 1_555
C5_7 C7_7 1_555 1_555
C6_7 C8_7 1_555 1_555
C7_7 C3_7 1_555 1_555
C8_7 C4_7 1_555 1_555
O1_7 C1_7 1_555 1_555
O3_7 C1_7 1_555 1_555
O4_7 C2_7 1_555 1_555
O5_7 Co2_7 1_555 1_555
O6_7 C6_7 1_555 1_555
O13_7 Co2_7 1_555 1_555
C17_7 O13_7 1_555 1_555
O14_7 C17_7 1_555 1_555
Co3_7 O4_7 1_555 1_555
Co14_2 O7_7 1_555 1_555
Co5_7 O5_7 1_555 1_555
Co6_7 O3_7 1_555 1_555
Co9_7 O1_7 1_555 1_555
O17_7 Co2_7 1_555 1_555
O20_7 Co2_7 1_555 1_555
O21_7 Co3_7 1_555 1_555
O24_7 Co2_7 1_555 1_555
Co11_7 O3_7 1_555 1_555
C5_7 O5_7 1_555 1_555
O6_7 Co11_7 1_555 1_555
Co3_7 O20_7 1_555 1_555
Co5_7 O24_7 1_555 1_555
C7_7 H2_7 1_555 1_555
Co5_7 O2_7 1_555 1_555
C9_7 C11_7 1_555 1_555
C10_7 C12_7 1_555 1_555
C11_7 C14_7 1_555 1_555
C12_7 C13_7 1_555 1_555
C13_7 C15_7 1_555 1_555
C14_7 C16_7 1_555 1_555
C15_7 C11_7 1_555 1_555
C16_7 C12_7 1_555 1_555
O21_7 C10_7 1_555 1_555
O23_2 C9_7 1_555 1_555
O11_7 Co5_7 1_555 1_555
O26_2 C14_7 1_555 1_555
C18_7 O15_7 1_555 1_555
O16_7 C18_7 1_555 1_555
O18_7 Co5_7 1_555 1_555
C10_7 O24_7 1_555 1_555
C13_7 O11_7 1_555 1_555
C16_7 H4_7 1_555 1_555
Co2_8 O4_8 1_555 1_555
C1_8 C3_8 1_555 1_555
C2_8 C4_8 1_555 1_555
C3_8 C6_8 1_555 1_555
C4_8 C5_8 1_555 1_555
C5_8 C7_8 1_555 1_555
C6_8 C8_8 1_555 1_555
C7_8 C3_8 1_555 1_555
C8_8 C4_8 1_555 1_555
O1_8 C1_8 1_555 1_555
O3_8 C1_8 1_555 1_555
O4_8 C2_8 1_555 1_555
O5_8 Co2_8 1_555 1_555
O6_8 C6_8 1_555 1_555
O13_8 Co2_8 1_555 1_555
C17_8 O13_8 1_555 1_555
O14_8 C17_8 1_555 1_555
Co3_8 O4_8 1_555 1_555
Co14_3 O7_8 1_555 1_555
Co5_8 O5_8 1_555 1_555
Co6_8 O3_8 1_555 1_555
Co9_8 O1_8 1_555 1_555
O17_8 Co2_8 1_555 1_555
O20_8 Co2_8 1_555 1_555
O21_8 Co3_8 1_555 1_555
O24_8 Co2_8 1_555 1_555
Co11_8 O3_8 1_555 1_555
C5_8 O5_8 1_555 1_555
O6_8 Co11_8 1_555 1_555
Co3_8 O20_8 1_555 1_555
Co5_8 O24_8 1_555 1_555
C7_8 H2_8 1_555 1_555
Co5_8 O2_8 1_555 1_555
C9_8 C11_8 1_555 1_555
C10_8 C12_8 1_555 1_555
C11_8 C14_8 1_555 1_555
C12_8 C13_8 1_555 1_555
C13_8 C15_8 1_555 1_555
C14_8 C16_8 1_555 1_555
C15_8 C11_8 1_555 1_555
C16_8 C12_8 1_555 1_555
O21_8 C10_8 1_555 1_555
O23_3 C9_8 1_555 1_555
O11_8 Co5_8 1_555 1_555
O26_3 C14_8 1_555 1_555
C18_8 O15_8 1_555 1_555
O16_8 C18_8 1_555 1_555
O18_8 Co5_8 1_555 1_555
C10_8 O24_8 1_555 1_555
C13_8 O11_8 1_555 1_555
C16_8 H4_8 1_555 1_555
Co2_9 O4_9 1_555 1_555
C1_9 C3_9 1_555 1_555
C2_9 C4_9 1_555 1_555
C3_9 C6_9 1_555 1_555
C4_9 C5_9 1_555 1_555
C5_9 C7_9 1_555 1_555
C6_9 C8_9 1_555 1_555
C7_9 C3_9 1_555 1_555
C8_9 C4_9 1_555 1_555
O1_9 C1_9 1_555 1_555
O3_9 C1_9 1_555 1_555
O4_9 C2_9 1_555 1_555
O5_9 Co2_9 1_555 1_555
O6_9 C6_9 1_555 1_555
O13_9 Co2_9 1_555 1_555
C17_9 O13_9 1_555 1_555
O14_9 C17_9 1_555 1_555
Co3_9 O4_9 1_555 1_555
Co14 O7_9 1_555 1_555
Co5_9 O5_9 1_555 1_555
Co6_9 O3_9 1_555 1_555
Co9_9 O1_9 1_555 1_555
O17_9 Co2_9 1_555 1_555
O20_9 Co2_9 1_555 1_555
O21_9 Co3_9 1_555 1_555
O24_9 Co2_9 1_555 1_555
Co11_9 O3_9 1_555 1_555
C5_9 O5_9 1_555 1_555
O6_9 Co11_9 1_555 1_555
Co3_9 O20_9 1_555 1_555
Co5_9 O24_9 1_555 1_555
C7_9 H2_9 1_555 1_555
Co5_9 O2_9 1_555 1_555
C9_9 C11_9 1_555 1_555
C10_9 C12_9 1_555 1_555
C11_9 C14_9 1_555 1_555
C12_9 C13_9 1_555 1_555
C13_9 C15_9 1_555 1_555
C14_9 C16_9 1_555 1_555
C15_9 C11_9 1_555 1_555
C16_9 C12_9 1_555 1_555
O21_9 C10_9 1_555 1_555
O23 C9_9 1_555 1_555
O11_9 Co5_9 1_555 1_555
O26 C14_9 1_555 1_555
C18_9 O15_9 1_555 1_555
O16_9 C18_9 1_555 1_555
O18_9 Co5_9 1_555 1_555
C10_9 O24_9 1_555 1_555
C13_9 O11_9 1_555 1_555
C16_9 H4_9 1_555 1_555
C10_10 C12_10 1_555 1_555
C14_10 C16_10 1_555 1_555
C16_10 C12_10 1_555 1_555
O8 C10_10 1_555 1_555
O12 C14_10 1_555 1_555
Co9_2 O10 1_555 1_555
Co11_2 O8 1_555 1_555
Co12 O12 1_555 1_555
C10_10 O10 1_555 1_555
O12 Co13_4 1_555 1_555
Co9_2 O19 1_555 1_555
C16_10 H4_10 1_555 1_555
Co6_2 O2_10 1_555 1_555
Co9_2 O4_10 1_555 1_555
C1_10 C3_10 1_555 1_555
C2_10 C4_10 1_555 1_555
C3_10 C6_10 1_555 1_555
C4_10 C5_10 1_555 1_555
C5_10 C7_10 1_555 1_555
C6_10 C8_10 1_555 1_555
C7_10 C3_10 1_555 1_555
C8_10 C4_10 1_555 1_555
O2_10 C2_10 1_555 1_555
O18_3 C1_10 1_555 1_555
O4_10 C2_10 1_555 1_555
O20_3 C6_10 1_555 1_555
C9_10 C11_10 1_555 1_555
C13_10 C15_10 1_555 1_555
C15_10 C11_10 1_555 1_555
O7_10 C9_10 1_555 1_555
O9_4 C9_10 1_555 1_555
O11_10 Co6_2 1_555 1_555
O13_10 Co9_2 1_555 1_555
C17_10 O13_10 1_555 1_555
O14_10 C17_10 1_555 1_555
Co11_2 O4_10 1_555 1_555
Co12 O7_10 1_555 1_555
O15_10 Co11_2 1_555 1_555
C18_10 O15_10 1_555 1_555
O16_10 C18_10 1_555 1_555
O22_4 Co12 1_555 1_555
O23_4 Co12 1_555 1_555
O26_4 Co12 1_555 1_555
Co14_4 O9_4 1_555 1_555
C5_10 O19 1_555 1_555
C13_10 O11_10 1_555 1_555
O11_10 Co11_2 1_555 1_555
O22_4 Co14_4 1_555 1_555
O26_4 Co14_4 1_555 1_555
C8_10 H1_10 1_555 1_555
C15_10 H3_10 1_555 1_555
C14_11 C16_11 1_555 1_555
O8_2 C10_11 1_555 1_555
O12_2 C14_11 1_555 1_555
Co11_3 O8_2 1_555 1_555
O12_2 Co13_5 1_555 1_555
C16_11 H4_11 1_555 1_555
O13_11 Co9_3 1_555 1_555
C17_11 O13_11 1_555 1_555
O14_11 C17_11 1_555 1_555
O15_11 Co11_3 1_555 1_555
C18_11 O15_11 1_555 1_555
O16_11 C18_11 1_555 1_555
Co6_3 O2_11 1_555 1_555
C1_11 C3_11 1_555 1_555
C2_11 C4_11 1_555 1_555
C3_11 C6_11 1_555 1_555
C4_11 C5_11 1_555 1_555
C5_11 C7_11 1_555 1_555
C6_11 C8_11 1_555 1_555
C7_11 C3_11 1_555 1_555
C8_11 C4_11 1_555 1_555
O2_11 C2_11 1_555 1_555
O18 C1_11 1_555 1_555
O4_11 C2_11 1_555 1_555
O20 C6_11 1_555 1_555
C9_11 C11_11 1_555 1_555
C13_11 C15_11 1_555 1_555
C15_11 C11_11 1_555 1_555
O7_11 C9_11 1_555 1_555
O9_5 C9_11 1_555 1_555
O11_11 Co6_3 1_555 1_555
Co12_2 O7_11 1_555 1_555
O23_5 Co12_2 1_555 1_555
O26_5 Co12_2 1_555 1_555
Co14_5 O9_5 1_555 1_555
C5_11 O19_2 1_555 1_555
C13_11 O11_11 1_555 1_555
O26_5 Co14_5 1_555 1_555
C8_11 H1_11 1_555 1_555
C15_11 H3_11 1_555 1_555
Co6 O2_12 1_555 1_555
C1_12 C3_12 1_555 1_555
C2_12 C4_12 1_555 1_555
C3_12 C6_12 1_555 1_555
C4_12 C5_12 1_555 1_555
C5_12 C7_12 1_555 1_555
C6_12 C8_12 1_555 1_555
C7_12 C3_12 1_555 1_555
C8_12 C4_12 1_555 1_555
O2_12 C2_12 1_555 1_555
O18_2 C1_12 1_555 1_555
O4_12 C2_12 1_555 1_555
O20_2 C6_12 1_555 1_555
C9_12 C11_12 1_555 1_555
C13_12 C15_12 1_555 1_555
C15_12 C11_12 1_555 1_555
O7_12 C9_12 1_555 1_555
O9_6 C9_12 1_555 1_555
O11_12 Co6 1_555 1_555
Co12_3 O7_12 1_555 1_555
O23_6 Co12_3 1_555 1_555
O26_6 Co12_3 1_555 1_555
Co14_6 O9_6 1_555 1_555
C5_12 O19_3 1_555 1_555
C13_12 O11_12 1_555 1_555
O26_6 Co14_6 1_555 1_555
C8_12 H1_12 1_555 1_555
C15_12 H3_12 1_555 1_555
C14_12 C16_12 1_555 1_555
O8_3 C10_12 1_555 1_555
O12_3 C14_12 1_555 1_555
Co11 O8_3 1_555 1_555
O12_3 Co13_6 1_555 1_555
C16_12 H4_12 1_555 1_555
O13_12 Co9 1_555 1_555
C17_12 O13_12 1_555 1_555
O14_12 C17_12 1_555 1_555
O15_12 Co11 1_555 1_555
C18_12 O15_12 1_555 1_555
O16_12 C18_12 1_555 1_555
Co11_8 O8_4 1_555 1_555
Co6_8 O2_13 1_555 1_555
C2_13 C4_13 1_555 1_555
C6_13 C8_13 1_555 1_555
C8_13 C4_13 1_555 1_555
O2_13 C2_13 1_555 1_555
O4_13 C2_13 1_555 1_555
O20_9 C6_13 1_555 1_555
C9_13 C11_13 1_555 1_555
C10_13 C12_13 1_555 1_555
C11_13 C14_13 1_555 1_555
C12_13 C13_13 1_555 1_555
C13_13 C15_13 1_555 1_555
C14_13 C16_13 1_555 1_555
C15_13 C11_13 1_555 1_555
C16_13 C12_13 1_555 1_555
O7_13 C9_13 1_555 1_555
O22_6 C9_13 1_555 1_555
O10_4 Co6_8 1_555 1_555
O11_13 Co6_8 1_555 1_555
O12_4 C14_13 1_555 1_555
C17_13 O13_13 1_555 1_555
O14_13 C17_13 1_555 1_555
Co11_8 O4_13 1_555 1_555
Co13_6 O7_13 1_555 1_555
O15_13 Co11_8 1_555 1_555
C18_13 O15_13 1_555 1_555
O16_13 C18_13 1_555 1_555
Co9_8 O10_4 1_555 1_555
O19_4 Co6_8 1_555 1_555
C10_13 O10_4 1_555 1_555
C13_13 O11_13 1_555 1_555
O11_13 Co11_8 1_555 1_555
Co9_8 O19_4 1_555 1_555
C8_13 H1_13 1_555 1_555
C15_13 H3_13 1_555 1_555
C16_13 H4_13 1_555 1_555
C1_13 C3_13 1_555 1_555
C5_13 C7_13 1_555 1_555
C7_13 C3_13 1_555 1_555
O17_9 C1_13 1_555 1_555
O18_9 C1_13 1_555 1_555
C5_13 O19_4 1_555 1_555
C7_13 H2_13 1_555 1_555
Co11_9 O8_5 1_555 1_555
Co6_9 O2_14 1_555 1_555
C2_14 C4_14 1_555 1_555
C6_14 C8_14 1_555 1_555
C8_14 C4_14 1_555 1_555
O2_14 C2_14 1_555 1_555
O4_14 C2_14 1_555 1_555
O20_7 C6_14 1_555 1_555
C9_14 C11_14 1_555 1_555
C10_14 C12_14 1_555 1_555
C11_14 C14_14 1_555 1_555
C12_14 C13_14 1_555 1_555
C13_14 C15_14 1_555 1_555
C14_14 C16_14 1_555 1_555
C15_14 C11_14 1_555 1_555
C16_14 C12_14 1_555 1_555
O7_14 C9_14 1_555 1_555
O22_4 C9_14 1_555 1_555
O10_5 Co6_9 1_555 1_555
O11_14 Co6_9 1_555 1_555
O12_5 C14_14 1_555 1_555
C17_14 O13_14 1_555 1_555
O14_14 C17_14 1_555 1_555
Co11_9 O4_14 1_555 1_555
Co13_4 O7_14 1_555 1_555
O15_14 Co11_9 1_555 1_555
C18_14 O15_14 1_555 1_555
O16_14 C18_14 1_555 1_555
Co9_9 O10_5 1_555 1_555
O19_5 Co6_9 1_555 1_555
O23_4 Co13_4 1_555 1_555
C10_14 O10_5 1_555 1_555
C13_14 O11_14 1_555 1_555
O11_14 Co11_9 1_555 1_555
O12_5 Co14_4 1_555 1_555
Co9_9 O19_5 1_555 1_555
C8_14 H1_14 1_555 1_555
C15_14 H3_14 1_555 1_555
C16_14 H4_14 1_555 1_555
C1_14 C3_14 1_555 1_555
C5_14 C7_14 1_555 1_555
C7_14 C3_14 1_555 1_555
O17_7 C1_14 1_555 1_555
O18_7 C1_14 1_555 1_555
C5_14 O19_5 1_555 1_555
C7_14 H2_14 1_555 1_555
Co11_7 O8_6 1_555 1_555
Co6_7 O2_15 1_555 1_555
C2_15 C4_15 1_555 1_555
C6_15 C8_15 1_555 1_555
C8_15 C4_15 1_555 1_555
O2_15 C2_15 1_555 1_555
O4_15 C2_15 1_555 1_555
O20_8 C6_15 1_555 1_555
C9_15 C11_15 1_555 1_555
C10_15 C12_15 1_555 1_555
C11_15 C14_15 1_555 1_555
C12_15 C13_15 1_555 1_555
C13_15 C15_15 1_555 1_555
C14_15 C16_15 1_555 1_555
C15_15 C11_15 1_555 1_555
C16_15 C12_15 1_555 1_555
O7_15 C9_15 1_555 1_555
O22_5 C9_15 1_555 1_555
O10_6 Co6_7 1_555 1_555
O11_15 Co6_7 1_555 1_555
O12_6 C14_15 1_555 1_555
C17_15 O13_15 1_555 1_555
O14_15 C17_15 1_555 1_555
Co11_7 O4_15 1_555 1_555
Co13_5 O7_15 1_555 1_555
O15_15 Co11_7 1_555 1_555
C18_15 O15_15 1_555 1_555
O16_15 C18_15 1_555 1_555
Co9_7 O10_6 1_555 1_555
O19_6 Co6_7 1_555 1_555
C10_15 O10_6 1_555 1_555
C13_15 O11_15 1_555 1_555
O11_15 Co11_7 1_555 1_555
Co9_7 O19_6 1_555 1_555
C8_15 H1_15 1_555 1_555
C15_15 H3_15 1_555 1_555
C16_15 H4_15 1_555 1_555
C1_15 C3_15 1_555 1_555
C5_15 C7_15 1_555 1_555
C7_15 C3_15 1_555 1_555
O17_8 C1_15 1_555 1_555
O18_8 C1_15 1_555 1_555
C5_15 O19_6 1_555 1_555
C7_15 H2_15 1_555 1_555
Co6_5 O2_16 1_555 1_555
C9_16 C11_16 1_555 1_555
C10_16 C12_16 1_555 1_555
C11_16 C14_16 1_555 1_555
C12_16 C13_16 1_555 1_555
C13_16 C15_16 1_555 1_555
C14_16 C16_16 1_555 1_555
C15_16 C11_16 1_555 1_555
C16_16 C12_16 1_555 1_555
O8_7 C10_16 1_555 1_555
O23_5 C9_16 1_555 1_555
O10_7 Co6_5 1_555 1_555
O11_16 Co6_5 1_555 1_555
O26_5 C14_16 1_555 1_555
C18_16 O15_16 1_555 1_555
O16_16 C18_16 1_555 1_555
Co9_5 O10_7 1_555 1_555
O19_7 Co6_5 1_555 1_555
Co11_5 O8_7 1_555 1_555
C10_16 O10_7 1_555 1_555
C13_16 O11_16 1_555 1_555
Co9_5 O19_7 1_555 1_555
C16_16 H4_16 1_555 1_555
Co9_5 O4_16 1_555 1_555
C1_16 C3_16 1_555 1_555
C2_16 C4_16 1_555 1_555
C3_16 C6_16 1_555 1_555
C4_16 C5_16 1_555 1_555
C5_16 C7_16 1_555 1_555
C6_16 C8_16 1_555 1_555
C7_16 C3_16 1_555 1_555
C8_16 C4_16 1_555 1_555
O17_6 C1_16 1_555 1_555
O18_6 C1_16 1_555 1_555
O4_16 C2_16 1_555 1_555
O20_6 C6_16 1_555 1_555
O13_16 Co9_5 1_555 1_555
C17_16 O13_16 1_555 1_555
O14_16 C17_16 1_555 1_555
Co11_5 O4_16 1_555 1_555
Co14_5 O7_16 1_555 1_555
C5_16 O19_7 1_555 1_555
C7_16 H2_16 1_555 1_555
Co6_6 O2_17 1_555 1_555
C9_17 C11_17 1_555 1_555
C10_17 C12_17 1_555 1_555
C11_17 C14_17 1_555 1_555
C12_17 C13_17 1_555 1_555
C13_17 C15_17 1_555 1_555
C14_17 C16_17 1_555 1_555
C15_17 C11_17 1_555 1_555
C16_17 C12_17 1_555 1_555
O8_8 C10_17 1_555 1_555
O23_6 C9_17 1_555 1_555
O10_8 Co6_6 1_555 1_555
O11_17 Co6_6 1_555 1_555
O26_6 C14_17 1_555 1_555
C18_17 O15_17 1_555 1_555
O16_17 C18_17 1_555 1_555
Co9_6 O10_8 1_555 1_555
O19_8 Co6_6 1_555 1_555
Co11_6 O8_8 1_555 1_555
C10_17 O10_8 1_555 1_555
C13_17 O11_17 1_555 1_555
Co9_6 O19_8 1_555 1_555
C16_17 H4_17 1_555 1_555
Co9_6 O4_17 1_555 1_555
C1_17 C3_17 1_555 1_555
C2_17 C4_17 1_555 1_555
C3_17 C6_17 1_555 1_555
C4_17 C5_17 1_555 1_555
C5_17 C7_17 1_555 1_555
C6_17 C8_17 1_555 1_555
C7_17 C3_17 1_555 1_555
C8_17 C4_17 1_555 1_555
O17_4 C1_17 1_555 1_555
O18_4 C1_17 1_555 1_555
O4_17 C2_17 1_555 1_555
O20_4 C6_17 1_555 1_555
O13_17 Co9_6 1_555 1_555
C17_17 O13_17 1_555 1_555
O14_17 C17_17 1_555 1_555
Co11_6 O4_17 1_555 1_555
Co14_6 O7_17 1_555 1_555
C5_17 O19_8 1_555 1_555
C7_17 H2_17 1_555 1_555
Co6_4 O2_18 1_555 1_555
C9_18 C11_18 1_555 1_555
C10_18 C12_18 1_555 1_555
C11_18 C14_18 1_555 1_555
C12_18 C13_18 1_555 1_555
C13_18 C15_18 1_555 1_555
C14_18 C16_18 1_555 1_555
C15_18 C11_18 1_555 1_555
C16_18 C12_18 1_555 1_555
O8_9 C10_18 1_555 1_555
O23_4 C9_18 1_555 1_555
O10_9 Co6_4 1_555 1_555
O11_18 Co6_4 1_555 1_555
O26_4 C14_18 1_555 1_555
C18_18 O15_18 1_555 1_555
O16_18 C18_18 1_555 1_555
Co9_4 O10_9 1_555 1_555
O19_9 Co6_4 1_555 1_555
Co11_4 O8_9 1_555 1_555
C10_18 O10_9 1_555 1_555
C13_18 O11_18 1_555 1_555
Co9_4 O19_9 1_555 1_555
C16_18 H4_18 1_555 1_555
Co9_4 O4_18 1_555 1_555
C1_18 C3_18 1_555 1_555
C2_18 C4_18 1_555 1_555
C3_18 C6_18 1_555 1_555
C4_18 C5_18 1_555 1_555
C5_18 C7_18 1_555 1_555
C6_18 C8_18 1_555 1_555
C7_18 C3_18 1_555 1_555
C8_18 C4_18 1_555 1_555
O17_5 C1_18 1_555 1_555
O18_5 C1_18 1_555 1_555
O4_18 C2_18 1_555 1_555
O20_5 C6_18 1_555 1_555
O13_18 Co9_4 1_555 1_555
C17_18 O13_18 1_555 1_555
O14_18 C17_18 1_555 1_555
Co11_4 O4_18 1_555 1_555
Co14_4 O7_18 1_555 1_555
C5_18 O19_9 1_555 1_555
C7_18 H2_18 1_555 1_555

#END
