
###############################################################################
#
# This file contains modified crystal structure data generated from the
# MOF subset of the Cambridge Structural Database (CSD) v543 
# hosted by the Cambridge Crystallographic Data Centre (CCDC).
#
# This work is licensed under the Creative Commons
# Attribution-NonCommercial-ShareAlike 4.0 International License.
# To view a copy of this license, visit
# http://creativecommons.org/licenses/by-nc-sa/4.0/
# or send a letter to
# Creative Commons, PO Box 1866, Mountain View, CA 94042, USA.
#
# CIF created using the CSD Python API on 29 September 2022
# The structure has been converted into the P1 space group
# The structure has a 3D framework
# The original CSD entry ZUWXUM is in the cubic crystal system
# The framework has been calculated to contain at least 10.0% void space
# The void calculation uses a probe of radius 1.32A, grid spacing 0.4
# The framework is charged, counterions have been retained in the structure
#
###############################################################################

data_ZUWXUM
_chemical_formula_moiety         '(C144 H48 In11 O88 23-)n'
_symmetry_cell_setting           triclinic
_symmetry_space_group_name_H-M   'P 1'
_symmetry_Int_Tables_number      1
_space_group_name_Hall           'P 1'
loop_
_symmetry_equiv_pos_site_id
_symmetry_equiv_pos_as_xyz
1 x,y,z
_cell_length_a                   20.4031(2)
_cell_length_b                   20.4031(2)
_cell_length_c                   20.4031(2)
_cell_angle_alpha                90
_cell_angle_beta                 90
_cell_angle_gamma                90
_cell_volume                     8493.53
loop_
_atom_site_label
_atom_site_type_symbol
_atom_site_fract_x
_atom_site_fract_y
_atom_site_fract_z
In5 In 0.0000 0.2500 0.8750
In1 In 0.6250 -0.0000 0.7500
O2 O 0.5319(4) 0.0364(4) 0.6865(5)
C3 C 0.4431(6) 0.0097(6) 0.5836(6)
H1 H 0.4354 0.0467 0.6091
O3 O 0.6641(4) 0.0822(4) 0.6960(4)
O4 O 0.7181(4) 0.0635(5) 0.7864(4)
O5 O 0.5859(4) 0.0540(4) 0.8322(4)
C4 C 0.7107(5) 0.0952(6) 0.7352(5)
C5 C 0.7545(7) 0.1517(6) 0.7191(6)
C7 C 0.7403(6) 0.1931(6) 0.6664(6)
C8 C 0.8069(6) 0.1664(6) 0.7597(6)
C11 C 0.7809(6) 0.2455(7) 0.6517(6)
H3 H 0.7033 0.1854 0.6409
H4 H 0.8146 0.1409 0.7967
C12 C 0.8483(6) 0.2191(6) 0.7455(7)
C13 C 0.3452(6) 0.0393(5) 0.5148(5)
C16 C 0.7648(5) 0.2893(5) 0.5952(6)
C17 C 0.8336(6) 0.2597(6) 0.6931(6)
C18 C 0.9048(6) 0.2352(5) 0.7893(5)
O9 O 0.3322(4) 0.0859(4) 0.5540(4)
O10 O 0.3135(5) 0.0319(4) 0.4636(4)
O13 O 0.8040(4) 0.3359(4) 0.5822(4)
O14 O 0.7136(4) 0.2819(4) 0.5635(5)
H6 H 0.8591 0.2967 0.6854
O15 O 0.9178(4) 0.1960(4) 0.8359(4)
O16 O 0.9365(5) 0.2864(4) 0.7819(4)
In2 In 0.2500 0.1250 0.5000
In4 In 0.7500 0.3750 0.5000
In5_2 In 1.0000 0.2500 0.8750
O17 O 0.3040(4) 0.1641(4) 0.4178(4)
O18 O 0.2136(4) 0.2181(4) 0.4365(5)
O19 O 0.1678(4) 0.0859(4) 0.4460(4)
O20 O 0.1960(4) 0.1641(4) 0.5822(4)
O21 O 0.1865(5) 0.0319(4) 0.5364(4)
O22 O 0.2864(4) 0.2181(4) 0.5635(5)
O23 O 0.6960(4) 0.3359(4) 0.4178(4)
O24 O 0.8322(4) 0.4141(4) 0.4460(4)
O25 O 0.8135(5) 0.4681(4) 0.5364(4)
O26 O 0.7864(4) 0.2819(4) 0.4365(5)
O27 O 0.6678(4) 0.4141(4) 0.5540(4)
O28 O 0.6865(5) 0.4681(4) 0.4636(4)
C19 C 0.2648(5) 0.2107(5) 0.4048(6)
C20 C 0.1548(6) 0.0393(5) 0.4852(5)
C21 C 0.2809(6) 0.2545(7) 0.3483(6)
C23 C 0.3336(6) 0.2403(6) 0.3069(6)
C24 C 0.2403(6) 0.3069(6) 0.3336(6)
C25 C 0.0569(6) 0.0097(6) 0.4164(6)
C27 C 0.3483(6) 0.2809(6) 0.2545(7)
H7 H 0.3591 0.2033 0.3146
C28 C 0.2545(7) 0.3483(6) 0.2809(6)
H8 H 0.2033 0.3146 0.3591
H9 H 0.0646 0.0467 0.3909
C31 C 0.3069(6) 0.3336(6) 0.2403(6)
C32 C 0.4048(6) 0.2648(5) 0.2107(5)
C33 C 0.2107(5) 0.4048(6) 0.2648(5)
H11 H 0.3146 0.3591 0.2033
O29 O 0.4178(4) 0.3040(4) 0.1641(4)
O30 O 0.4365(5) 0.2136(4) 0.2181(4)
O31 O 0.1641(4) 0.4178(4) 0.3040(4)
O32 O 0.2181(4) 0.4365(5) 0.2136(4)
In6 In 0.5000 0.2500 0.1250
In7 In 0.1250 0.5000 0.2500
In1_2 In 0.6250 1.0000 0.7500
O1 O 0.5859(4) 0.9460(4) 0.6678(4)
C1 C 0.5393(5) 0.9852(5) 0.6548(6)
C2 C 0.4955(7) 0.9691(6) 0.5983(6)
O6 O 0.6641(4) 0.9178(4) 0.8040(4)
O7 O 0.5319(4) 0.9636(4) 0.8135(5)
O8 O 0.7181(4) 0.9365(5) 0.7136(4)
C6 C 0.5097(6) 0.9164(6) 0.5569(6)
C9 C 0.4017(6) 0.9955(7) 0.5309(6)
C10 C 0.4691(6) 0.9017(6) 0.5045(7)
H2 H 0.5467 0.8909 0.5646
C14 C 0.4164(6) 0.9431(6) 0.4903(6)
C15 C 0.4852(5) 0.8452(6) 0.4607(5)
H5 H 0.3909 0.9354 0.4533
O11 O 0.4460(4) 0.8322(4) 0.4141(4)
O12 O 0.5364(4) 0.8135(5) 0.4681(4)
In3 In 0.5000 0.7500 0.3750
C22 C 0.0983(6) 0.9955(7) 0.4691(6)
C26 C 0.0836(6) 0.9431(6) 0.5097(6)
C29 C 0.0045(7) 0.9691(6) 0.4017(6)
C30 C 0.0309(6) 0.9017(6) 0.4955(7)
H10 H 0.1091 0.9354 0.5467
C36 C 0.0148(5) 0.8452(6) 0.5393(5)
O35 O 0.0540(4) 0.8322(4) 0.5859(4)
In9 In -0.0000 0.7500 0.6250
O34 O 0.9681(4) 0.0364(4) 0.3135(5)
In8 In 0.8750 0.0000 0.2500
C34 C 0.9607(5) 0.9852(5) 0.3452(6)
C35 C 0.9903(6) 0.9164(6) 0.4431(6)
O33 O 0.9141(4) 0.9460(4) 0.3322(4)
H12 H 0.9533 0.8909 0.4354
O36 O 0.9636(4) 0.8135(5) 0.5319(4)
In8_2 In 0.8750 1.0000 0.2500
In9_2 In 1.0000 0.7500 0.6250
C2_2 C 0.0045(7) 0.0309(6) 0.0983(6)
C9_2 C 0.0983(6) 0.0045(7) 0.0309(6)
C10_2 C 0.0309(6) 0.0983(6) 0.0045(7)
C26_2 C 0.4164(6) 0.0569(6) 0.0097(6)
H10_2 H 0.3909 0.0646 0.0467
C36_2 C 0.4852(5) 0.1548(6) 0.0393(5)
O35_2 O 0.4460(4) 0.1678(4) 0.0859(4)
O36_2 O 0.5364(4) 0.1865(5) 0.0319(4)
C14_2 C 0.0836(6) 0.0569(6) 0.9903(6)
C15_2 C 0.0148(5) 0.1548(6) 0.9607(5)
H5_2 H 0.1091 0.0646 0.9533
O11_2 O 0.0540(4) 0.1678(4) 0.9141(4)
C22_2 C 0.4017(6) 0.0045(7) 0.9691(6)
C29_2 C 0.4955(7) 0.0309(6) 0.9017(6)
C30_2 C 0.4691(6) 0.0983(6) 0.9955(7)
C34_2 C 0.5393(5) 0.0148(5) 0.8452(6)
C35_2 C 0.5097(6) 0.0836(6) 0.9431(6)
H12_2 H 0.5467 0.1091 0.9354
C3_2 C 0.0569(6) 0.9903(6) 0.0836(6)
H1_2 H 0.0646 0.9533 0.1091
C13_2 C 0.1548(6) 0.9607(5) 0.0148(5)
O9_2 O 0.1678(4) 0.9141(4) 0.0540(4)
In2_2 In 0.2500 0.8750 0.0000
O20_2 O 0.3040(4) 0.8359(4) 0.0822(4)
O21_2 O 0.3135(5) 0.9681(4) 0.0364(4)
O22_2 O 0.2136(4) 0.7819(4) 0.0635(5)
O10_2 O 0.1865(5) 0.9681(4) 0.9636(4)
In2_3 In 0.2500 0.8750 1.0000
O17_2 O 0.1960(4) 0.8359(4) 0.9178(4)
O18_2 O 0.2864(4) 0.7819(4) 0.9365(5)
O19_2 O 0.3322(4) 0.9141(4) 0.9460(4)
C19_2 C 0.2352(5) 0.7893(5) 0.9048(6)
C20_2 C 0.3452(6) 0.9607(5) 0.9852(5)
C21_2 C 0.2191(6) 0.7455(7) 0.8483(6)
C23_2 C 0.1664(6) 0.7597(6) 0.8069(6)
C24_2 C 0.2597(6) 0.6931(6) 0.8336(6)
C25_2 C 0.4431(6) 0.9903(6) 0.9164(6)
C27_2 C 0.1517(6) 0.7191(6) 0.7545(7)
H7_2 H 0.1409 0.7967 0.8146
C28_2 C 0.2455(7) 0.6517(6) 0.7809(6)
H8_2 H 0.2967 0.6854 0.8591
H9_2 H 0.4354 0.9533 0.8909
C31_2 C 0.1931(6) 0.6664(6) 0.7403(6)
C32_2 C 0.0952(6) 0.7352(5) 0.7107(5)
C33_2 C 0.2893(5) 0.5952(6) 0.7648(5)
H11_2 H 0.1854 0.6409 0.7033
O29_2 O 0.0822(4) 0.6960(4) 0.6641(4)
O30_2 O 0.0635(5) 0.7864(4) 0.7181(4)
O31_2 O 0.3359(4) 0.5822(4) 0.8040(4)
O32_2 O 0.2819(4) 0.5635(5) 0.7136(4)
In7_2 In 0.3750 0.5000 0.7500
O1_2 O 0.9141(4) 0.0540(4) 0.1678(4)
C1_2 C 0.9607(5) 0.0148(5) 0.1548(6)
O6_2 O 0.8359(4) 0.0822(4) 0.3040(4)
O8_2 O 0.7819(4) 0.0635(5) 0.2136(4)
C6_2 C 0.9903(6) 0.0836(6) 0.0569(6)
H2_2 H 0.9533 0.1091 0.0646
O12_2 O 0.9636(4) 0.1865(5) 0.9681(4)
O2_2 O 0.9681(4) 0.9636(4) 0.1865(5)
O3_2 O 0.8359(4) 0.9178(4) 0.1960(4)
O4_2 O 0.7819(4) 0.9365(5) 0.2864(4)
C4_2 C 0.7893(5) 0.9048(6) 0.2352(5)
C5_2 C 0.7455(7) 0.8483(6) 0.2191(6)
C7_2 C 0.7597(6) 0.8069(6) 0.1664(6)
C8_2 C 0.6931(6) 0.8336(6) 0.2597(6)
C11_2 C 0.7191(6) 0.7545(7) 0.1517(6)
H3_2 H 0.7967 0.8146 0.1409
H4_2 H 0.6854 0.8591 0.2967
C12_2 C 0.6517(6) 0.7809(6) 0.2455(7)
C16_2 C 0.7352(5) 0.7107(5) 0.0952(6)
C17_2 C 0.6664(6) 0.7403(6) 0.1931(6)
C18_2 C 0.5952(6) 0.7648(5) 0.2893(5)
O13_2 O 0.6960(4) 0.6641(4) 0.0822(4)
O14_2 O 0.7864(4) 0.7181(4) 0.0635(5)
H6_2 H 0.6409 0.7033 0.1854
O15_2 O 0.5822(4) 0.8040(4) 0.3359(4)
O16_2 O 0.5635(5) 0.7136(4) 0.2819(4)
In4_2 In 0.7500 0.6250 0.0000
O25_2 O 0.6865(5) 0.5319(4) 0.0364(4)
O27_2 O 0.8322(4) 0.5859(4) 0.0540(4)
In4_3 In 0.7500 0.6250 1.0000
O23_2 O 0.8040(4) 0.6641(4) 0.9178(4)
O24_2 O 0.6678(4) 0.5859(4) 0.9460(4)
O26_2 O 0.7136(4) 0.7181(4) 0.9365(5)
O28_2 O 0.8135(5) 0.5319(4) 0.9636(4)
C34_3 C 0.0393(5) 0.4852(5) 0.1548(6)
C35_3 C 0.0097(6) 0.4164(6) 0.0569(6)
O33_2 O 0.0859(4) 0.4460(4) 0.1678(4)
O34_2 O 0.0319(4) 0.5364(4) 0.1865(5)
H12_3 H 0.0467 0.3909 0.0646
O36_3 O 0.0364(4) 0.3135(5) 0.9681(4)
C14_3 C 0.5836(6) 0.4431(6) 0.0097(6)
C15_3 C 0.5148(5) 0.3452(6) 0.0393(5)
H5_3 H 0.6091 0.4354 0.0467
O11_3 O 0.5540(4) 0.3322(4) 0.0859(4)
O12_3 O 0.4636(4) 0.3135(5) 0.0319(4)
C20_3 C 0.8452(6) 0.5393(5) 0.0148(5)
C22_3 C 0.9017(6) 0.4955(7) 0.0309(6)
C25_3 C 0.9431(6) 0.5097(6) 0.0836(6)
C29_3 C 0.9955(7) 0.4691(6) 0.0983(6)
H9_3 H 0.9354 0.5467 0.1091
C30_3 C 0.9691(6) 0.4017(6) 0.0045(7)
O1_3 O 0.4141(4) 0.4460(4) 0.8322(4)
O2_3 O 0.4681(4) 0.5364(4) 0.8135(5)
C1_3 C 0.4607(5) 0.4852(5) 0.8452(6)
C2_3 C 0.5045(7) 0.4691(6) 0.9017(6)
C3_3 C 0.5569(6) 0.5097(6) 0.9164(6)
H1_3 H 0.5646 0.5467 0.8909
O5_2 O 0.4141(4) 0.5540(4) 0.6678(4)
O6_3 O 0.3359(4) 0.4178(4) 0.6960(4)
O7_2 O 0.4681(4) 0.4636(4) 0.6865(5)
O8_3 O 0.2819(4) 0.4365(5) 0.7864(4)
C6_3 C 0.4903(6) 0.4164(6) 0.9431(6)
C9_3 C 0.5983(6) 0.4955(7) 0.9691(6)
C10_3 C 0.5309(6) 0.4017(6) 0.9955(7)
H2_3 H 0.4533 0.3909 0.9354
C13_3 C 0.6548(6) 0.5393(5) 0.9852(5)
C26_3 C 0.9164(6) 0.4431(6) 0.9903(6)
H10_3 H 0.8909 0.4354 0.9533
C36_3 C 0.9852(5) 0.3452(6) 0.9607(5)
O35_3 O 0.9460(4) 0.3322(4) 0.9141(4)
O1_4 O 0.0859(4) 0.5540(4) 0.3322(4)
O2_4 O 0.0319(4) 0.4636(4) 0.3135(5)
C1_4 C 0.0393(5) 0.5148(5) 0.3452(6)
O6_4 O 0.1641(4) 0.5822(4) 0.1960(4)
O8_4 O 0.2181(4) 0.5635(5) 0.2864(4)
C6_4 C 0.0097(6) 0.5836(6) 0.4431(6)
H2_4 H 0.0467 0.6091 0.4354
O12_4 O 0.0364(4) 0.6865(5) 0.5319(4)
C2_4 C 0.9955(7) 0.5309(6) 0.4017(6)
C3_4 C 0.9431(6) 0.4903(6) 0.4164(6)
H1_4 H 0.9354 0.4533 0.3909
C9_4 C 0.9017(6) 0.5045(7) 0.4691(6)
C10_4 C 0.9691(6) 0.5983(6) 0.4955(7)
C13_4 C 0.8452(6) 0.4607(5) 0.4852(5)
C14_4 C 0.9164(6) 0.5569(6) 0.5097(6)
C15_4 C 0.9852(5) 0.6548(6) 0.5393(5)
H5_4 H 0.8909 0.5646 0.5467
O11_4 O 0.9460(4) 0.6678(4) 0.5859(4)
C20_4 C 0.6548(6) 0.4607(5) 0.5148(5)
C22_4 C 0.5983(6) 0.5045(7) 0.5309(6)
C25_4 C 0.5569(6) 0.4903(6) 0.5836(6)
C26_4 C 0.5836(6) 0.5569(6) 0.4903(6)
C29_4 C 0.5045(7) 0.5309(6) 0.5983(6)
H9_4 H 0.5646 0.4533 0.6091
C30_4 C 0.5309(6) 0.5983(6) 0.5045(7)
H10_4 H 0.6091 0.5646 0.4533
C34_4 C 0.4607(5) 0.5148(5) 0.6548(6)
C35_4 C 0.4903(6) 0.5836(6) 0.5569(6)
C36_4 C 0.5148(5) 0.6548(6) 0.4607(5)
H12_4 H 0.4533 0.6091 0.5646
O35_4 O 0.5540(4) 0.6678(4) 0.4141(4)
O36_4 O 0.4636(4) 0.6865(5) 0.4681(4)
O20_3 O 0.5822(4) 0.1960(4) 0.1641(4)
O22_3 O 0.5635(5) 0.2864(4) 0.2181(4)
O23_3 O 0.4178(4) 0.6960(4) 0.3359(4)
O26_3 O 0.4365(5) 0.7864(4) 0.2819(4)
O20_4 O 0.0822(4) 0.3040(4) 0.8359(4)
O22_4 O 0.0635(5) 0.2136(4) 0.7819(4)
O23_4 O 0.9178(4) 0.8040(4) 0.6641(4)
O26_4 O 0.9365(5) 0.7136(4) 0.7181(4)
C20_5 C 0.2893(5) 0.4048(6) 0.7352(5)
C22_5 C 0.2455(7) 0.3483(6) 0.7191(6)
C25_5 C 0.2597(6) 0.3069(6) 0.6664(6)
C26_5 C 0.1931(6) 0.3336(6) 0.7597(6)
C29_5 C 0.2191(6) 0.2545(7) 0.6517(6)
H9_5 H 0.2967 0.3146 0.6409
C30_5 C 0.1517(6) 0.2809(6) 0.7455(7)
H10_5 H 0.1854 0.3591 0.7967
C34_5 C 0.2352(5) 0.2107(5) 0.5952(6)
C35_5 C 0.1664(6) 0.2403(6) 0.6931(6)
C36_5 C 0.0952(6) 0.2648(5) 0.7893(5)
H12_5 H 0.1409 0.2033 0.6854
C20_6 C 0.2107(5) 0.5952(6) 0.2352(5)
C22_6 C 0.2545(7) 0.6517(6) 0.2191(6)
C25_6 C 0.2403(6) 0.6931(6) 0.1664(6)
C26_6 C 0.3069(6) 0.6664(6) 0.2597(6)
C29_6 C 0.2809(6) 0.7455(7) 0.1517(6)
H9_6 H 0.2033 0.6854 0.1409
C30_6 C 0.3483(6) 0.7191(6) 0.2455(7)
H10_6 H 0.3146 0.6409 0.2967
C34_6 C 0.2648(5) 0.7893(5) 0.0952(6)
C35_6 C 0.3336(6) 0.7597(6) 0.1931(6)
C36_6 C 0.4048(6) 0.7352(5) 0.2893(5)
H12_6 H 0.3591 0.7967 0.1854
C20_7 C 0.7893(5) 0.0952(6) 0.2648(5)
C22_7 C 0.7455(7) 0.1517(6) 0.2809(6)
C25_7 C 0.7597(6) 0.1931(6) 0.3336(6)
C26_7 C 0.6931(6) 0.1664(6) 0.2403(6)
C29_7 C 0.7191(6) 0.2455(7) 0.3483(6)
H9_7 H 0.7967 0.1854 0.3591
C30_7 C 0.6517(6) 0.2191(6) 0.2545(7)
H10_7 H 0.6854 0.1409 0.2033
C34_7 C 0.7352(5) 0.2893(5) 0.4048(6)
C35_7 C 0.6664(6) 0.2597(6) 0.3069(6)
C36_7 C 0.5952(6) 0.2352(5) 0.2107(5)
H12_7 H 0.6409 0.2967 0.3146
C20_8 C 0.7107(5) 0.9048(6) 0.7648(5)
C22_8 C 0.7545(7) 0.8483(6) 0.7809(6)
C25_8 C 0.7403(6) 0.8069(6) 0.8336(6)
C26_8 C 0.8069(6) 0.8336(6) 0.7403(6)
C29_8 C 0.7809(6) 0.7545(7) 0.8483(6)
H9_8 H 0.7033 0.8146 0.8591
C30_8 C 0.8483(6) 0.7809(6) 0.7545(7)
H10_8 H 0.8146 0.8591 0.7033
C34_8 C 0.7648(5) 0.7107(5) 0.9048(6)
C35_8 C 0.8336(6) 0.7403(6) 0.8069(6)
C36_8 C 0.9048(6) 0.7648(5) 0.7107(5)
H12_8 H 0.8591 0.7033 0.8146
loop_
_geom_bond_atom_site_label_1
_geom_bond_atom_site_label_2
_geom_bond_site_symmetry_1
_geom_bond_site_symmetry_2
O2 In1 1_555 1_555
H1 C3 1_555 1_555
O3 In1 1_555 1_555
O4 In1 1_555 1_555
O5 In1 1_555 1_555
C4 O3 1_555 1_555
C5 C4 1_555 1_555
C7 C5 1_555 1_555
C8 C5 1_555 1_555
C11 C7 1_555 1_555
H3 C7 1_555 1_555
H4 C8 1_555 1_555
C12 C8 1_555 1_555
C16 C11 1_555 1_555
C17 C11 1_555 1_555
C18 C12 1_555 1_555
O9 C13 1_555 1_555
O10 C13 1_555 1_555
O13 C16 1_555 1_555
O14 C16 1_555 1_555
H6 C17 1_555 1_555
O15 C18 1_555 1_555
O16 C18 1_555 1_555
In2 O9 1_555 1_555
In4 O13 1_555 1_555
In5_2 O15 1_555 1_555
O17 In2 1_555 1_555
O18 In2 1_555 1_555
O19 In2 1_555 1_555
O20 In2 1_555 1_555
O21 In2 1_555 1_555
O22 In2 1_555 1_555
O23 In4 1_555 1_555
O24 In4 1_555 1_555
O25 In4 1_555 1_555
O26 In4 1_555 1_555
O27 In4 1_555 1_555
O28 In4 1_555 1_555
C19 O17 1_555 1_555
C20 O19 1_555 1_555
C21 C19 1_555 1_555
C23 C21 1_555 1_555
C24 C21 1_555 1_555
C27 C23 1_555 1_555
H7 C23 1_555 1_555
C28 C24 1_555 1_555
H8 C24 1_555 1_555
H9 C25 1_555 1_555
C31 C27 1_555 1_555
C32 C27 1_555 1_555
C33 C28 1_555 1_555
H11 C31 1_555 1_555
O29 C32 1_555 1_555
O30 C32 1_555 1_555
O31 C33 1_555 1_555
O32 C33 1_555 1_555
In6 O29 1_555 1_555
In7 O31 1_555 1_555
O4 C4 1_555 1_555
C12 C17 1_555 1_555
O10 In2 1_555 1_555
O14 In4 1_555 1_555
O16 In5_2 1_555 1_555
O18 C19 1_555 1_555
O21 C20 1_555 1_555
C28 C31 1_555 1_555
O30 In6 1_555 1_555
O32 In7 1_555 1_555
In1_2 O1 1_555 1_555
O1 C1 1_555 1_555
C2 C1 1_555 1_555
O6 In1_2 1_555 1_555
O7 In1_2 1_555 1_555
O8 In1_2 1_555 1_555
C6 C2 1_555 1_555
C10 C6 1_555 1_555
H2 C6 1_555 1_555
C14 C9 1_555 1_555
C15 C10 1_555 1_555
H5 C14 1_555 1_555
O11 C15 1_555 1_555
O12 C15 1_555 1_555
In3 O11 1_555 1_555
C26 C22 1_555 1_555
C30 C26 1_555 1_555
H10 C26 1_555 1_555
C36 C30 1_555 1_555
O35 C36 1_555 1_555
In9 O35 1_555 1_555
C10 C14 1_555 1_555
O12 In3 1_555 1_555
O34 In8 1_555 1_555
O33 C34 1_555 1_555
H12 C35 1_555 1_555
In8_2 O33 1_555 1_555
O36 In9_2 1_555 1_555
H10_2 C26_2 1_555 1_555
O35_2 C36_2 1_555 1_555
O36_2 C36_2 1_555 1_555
In6 O35_2 1_555 1_555
O36_2 In6 1_555 1_555
H5_2 C14_2 1_555 1_555
O11_2 C15_2 1_555 1_555
In5 O11_2 1_555 1_555
C34_2 C29_2 1_555 1_555
C35_2 C29_2 1_555 1_555
O5 C34_2 1_555 1_555
H12_2 C35_2 1_555 1_555
C30_2 C35_2 1_555 1_555
H1_2 C3_2 1_555 1_555
O9_2 C13_2 1_555 1_555
In2_2 O9_2 1_555 1_555
O20_2 In2_2 1_555 1_555
O21_2 In2_2 1_555 1_555
O22_2 In2_2 1_555 1_555
O17_2 In2_3 1_555 1_555
O18_2 In2_3 1_555 1_555
O19_2 In2_3 1_555 1_555
C19_2 O17_2 1_555 1_555
C20_2 O19_2 1_555 1_555
C21_2 C19_2 1_555 1_555
C23_2 C21_2 1_555 1_555
C24_2 C21_2 1_555 1_555
C27_2 C23_2 1_555 1_555
H7_2 C23_2 1_555 1_555
C28_2 C24_2 1_555 1_555
H8_2 C24_2 1_555 1_555
H9_2 C25_2 1_555 1_555
C31_2 C27_2 1_555 1_555
C32_2 C27_2 1_555 1_555
C33_2 C28_2 1_555 1_555
H11_2 C31_2 1_555 1_555
O29_2 C32_2 1_555 1_555
O30_2 C32_2 1_555 1_555
O31_2 C33_2 1_555 1_555
O32_2 C33_2 1_555 1_555
In9 O29_2 1_555 1_555
In7_2 O31_2 1_555 1_555
O10_2 In2_3 1_555 1_555
O18_2 C19_2 1_555 1_555
C28_2 C31_2 1_555 1_555
O30_2 In9 1_555 1_555
O32_2 In7_2 1_555 1_555
In8 O1_2 1_555 1_555
O1_2 C1_2 1_555 1_555
O6_2 In8 1_555 1_555
O8_2 In8 1_555 1_555
H2_2 C6_2 1_555 1_555
O12_2 In5_2 1_555 1_555
O2_2 In8_2 1_555 1_555
O3_2 In8_2 1_555 1_555
O4_2 In8_2 1_555 1_555
C4_2 O3_2 1_555 1_555
C5_2 C4_2 1_555 1_555
C7_2 C5_2 1_555 1_555
C8_2 C5_2 1_555 1_555
C11_2 C7_2 1_555 1_555
H3_2 C7_2 1_555 1_555
H4_2 C8_2 1_555 1_555
C12_2 C8_2 1_555 1_555
C16_2 C11_2 1_555 1_555
C17_2 C11_2 1_555 1_555
C18_2 C12_2 1_555 1_555
O13_2 C16_2 1_555 1_555
O14_2 C16_2 1_555 1_555
H6_2 C17_2 1_555 1_555
O15_2 C18_2 1_555 1_555
O16_2 C18_2 1_555 1_555
In4_2 O13_2 1_555 1_555
In3 O15_2 1_555 1_555
O25_2 In4_2 1_555 1_555
O27_2 In4_2 1_555 1_555
O4_2 C4_2 1_555 1_555
C12_2 C17_2 1_555 1_555
O14_2 In4_2 1_555 1_555
O16_2 In3 1_555 1_555
O23_2 In4_3 1_555 1_555
O24_2 In4_3 1_555 1_555
O26_2 In4_3 1_555 1_555
O28_2 In4_3 1_555 1_555
O33_2 C34_3 1_555 1_555
O34_2 C34_3 1_555 1_555
H12_3 C35_3 1_555 1_555
In7 O33_2 1_555 1_555
O34_2 In7 1_555 1_555
O36_3 In5 1_555 1_555
H5_3 C14_3 1_555 1_555
O11_3 C15_3 1_555 1_555
O12_3 C15_3 1_555 1_555
In6 O11_3 1_555 1_555
C20_3 O27_2 1_555 1_555
C22_3 C20_3 1_555 1_555
C25_3 C22_3 1_555 1_555
C29_3 C25_3 1_555 1_555
H9_3 C25_3 1_555 1_555
O12_3 In6 1_555 1_555
In7_2 O1_3 1_555 1_555
O1_3 C1_3 1_555 1_555
O2_3 In7_2 1_555 1_555
C1_3 O2_3 1_555 1_555
C2_3 C1_3 1_555 1_555
C3_3 C2_3 1_555 1_555
H1_3 C3_3 1_555 1_555
O5_2 In7_2 1_555 1_555
O6_3 In7_2 1_555 1_555
O7_2 In7_2 1_555 1_555
O8_3 In7_2 1_555 1_555
C6_3 C2_3 1_555 1_555
C9_3 C3_3 1_555 1_555
C10_3 C6_3 1_555 1_555
H2_3 C6_3 1_555 1_555
C13_3 C9_3 1_555 1_555
O24_2 C13_3 1_555 1_555
H10_3 C26_3 1_555 1_555
O35_3 C36_3 1_555 1_555
In5_2 O35_3 1_555 1_555
In7 O1_4 1_555 1_555
O1_4 C1_4 1_555 1_555
O2_4 In7 1_555 1_555
C1_4 O2_4 1_555 1_555
O6_4 In7 1_555 1_555
O8_4 In7 1_555 1_555
H2_4 C6_4 1_555 1_555
O12_4 In9 1_555 1_555
C3_4 C2_4 1_555 1_555
H1_4 C3_4 1_555 1_555
C9_4 C3_4 1_555 1_555
C13_4 C9_4 1_555 1_555
C14_4 C9_4 1_555 1_555
C15_4 C10_4 1_555 1_555
O24 C13_4 1_555 1_555
O25 C13_4 1_555 1_555
H5_4 C14_4 1_555 1_555
O11_4 C15_4 1_555 1_555
In9_2 O11_4 1_555 1_555
C20_4 O27 1_555 1_555
C22_4 C20_4 1_555 1_555
C25_4 C22_4 1_555 1_555
C26_4 C22_4 1_555 1_555
C29_4 C25_4 1_555 1_555
H9_4 C25_4 1_555 1_555
C30_4 C26_4 1_555 1_555
H10_4 C26_4 1_555 1_555
C34_4 C29_4 1_555 1_555
C35_4 C29_4 1_555 1_555
C36_4 C30_4 1_555 1_555
O5_2 C34_4 1_555 1_555
O7_2 C34_4 1_555 1_555
H12_4 C35_4 1_555 1_555
O35_4 C36_4 1_555 1_555
O36_4 C36_4 1_555 1_555
In3 O35_4 1_555 1_555
C10_4 C14_4 1_555 1_555
O28 C20_4 1_555 1_555
C30_4 C35_4 1_555 1_555
O36_4 In3 1_555 1_555
O20_3 In6 1_555 1_555
O22_3 In6 1_555 1_555
O23_3 In3 1_555 1_555
O26_3 In3 1_555 1_555
O20_4 In5 1_555 1_555
O22_4 In5 1_555 1_555
O23_4 In9_2 1_555 1_555
O26_4 In9_2 1_555 1_555
C20_5 O6_3 1_555 1_555
C22_5 C20_5 1_555 1_555
C25_5 C22_5 1_555 1_555
C26_5 C22_5 1_555 1_555
C29_5 C25_5 1_555 1_555
H9_5 C25_5 1_555 1_555
C30_5 C26_5 1_555 1_555
H10_5 C26_5 1_555 1_555
C34_5 C29_5 1_555 1_555
C35_5 C29_5 1_555 1_555
C36_5 C30_5 1_555 1_555
O20 C34_5 1_555 1_555
O22 C34_5 1_555 1_555
H12_5 C35_5 1_555 1_555
O20_4 C36_5 1_555 1_555
O22_4 C36_5 1_555 1_555
O8_3 C20_5 1_555 1_555
C30_5 C35_5 1_555 1_555
C20_6 O6_4 1_555 1_555
C22_6 C20_6 1_555 1_555
C25_6 C22_6 1_555 1_555
C26_6 C22_6 1_555 1_555
C29_6 C25_6 1_555 1_555
H9_6 C25_6 1_555 1_555
C30_6 C26_6 1_555 1_555
H10_6 C26_6 1_555 1_555
C34_6 C29_6 1_555 1_555
C35_6 C29_6 1_555 1_555
C36_6 C30_6 1_555 1_555
O20_2 C34_6 1_555 1_555
O22_2 C34_6 1_555 1_555
H12_6 C35_6 1_555 1_555
O23_3 C36_6 1_555 1_555
O26_3 C36_6 1_555 1_555
O8_4 C20_6 1_555 1_555
C30_6 C35_6 1_555 1_555
C20_7 O6_2 1_555 1_555
C22_7 C20_7 1_555 1_555
C25_7 C22_7 1_555 1_555
C26_7 C22_7 1_555 1_555
C29_7 C25_7 1_555 1_555
H9_7 C25_7 1_555 1_555
C30_7 C26_7 1_555 1_555
H10_7 C26_7 1_555 1_555
C34_7 C29_7 1_555 1_555
C35_7 C29_7 1_555 1_555
C36_7 C30_7 1_555 1_555
O23 C34_7 1_555 1_555
O26 C34_7 1_555 1_555
H12_7 C35_7 1_555 1_555
O20_3 C36_7 1_555 1_555
O22_3 C36_7 1_555 1_555
O8_2 C20_7 1_555 1_555
C30_7 C35_7 1_555 1_555
C20_8 O6 1_555 1_555
C22_8 C20_8 1_555 1_555
C25_8 C22_8 1_555 1_555
C26_8 C22_8 1_555 1_555
C29_8 C25_8 1_555 1_555
H9_8 C25_8 1_555 1_555
C30_8 C26_8 1_555 1_555
H10_8 C26_8 1_555 1_555
C34_8 C29_8 1_555 1_555
C35_8 C29_8 1_555 1_555
C36_8 C30_8 1_555 1_555
O23_2 C34_8 1_555 1_555
O26_2 C34_8 1_555 1_555
H12_8 C35_8 1_555 1_555
O23_4 C36_8 1_555 1_555
O26_4 C36_8 1_555 1_555
O8 C20_8 1_555 1_555
C30_8 C35_8 1_555 1_555

#END
