
###############################################################################
#
# This file contains modified crystal structure data generated from the
# MOF subset of the Cambridge Structural Database (CSD) v543 
# hosted by the Cambridge Crystallographic Data Centre (CCDC).
#
# This work is licensed under the Creative Commons
# Attribution-NonCommercial-ShareAlike 4.0 International License.
# To view a copy of this license, visit
# http://creativecommons.org/licenses/by-nc-sa/4.0/
# or send a letter to
# Creative Commons, PO Box 1866, Mountain View, CA 94042, USA.
#
# CIF created using the CSD Python API on 29 September 2022
# The structure has been converted into the P1 space group
# The structure has a 3D framework
# The original CSD entry ZUXJAG is in the tetragonal crystal system
# The framework has been calculated to contain at least 10.0% void space
# The void calculation uses a probe of radius 1.32A, grid spacing 0.4
#
###############################################################################

data_ZUXJAG
_chemical_formula_moiety         '(C208 H112 Eu12 N16 O66)n'
_symmetry_cell_setting           triclinic
_symmetry_space_group_name_H-M   'P 1'
_symmetry_Int_Tables_number      1
_space_group_name_Hall           'P 1'
loop_
_symmetry_equiv_pos_site_id
_symmetry_equiv_pos_as_xyz
1 x,y,z
_cell_length_a                   30.3039(3)
_cell_length_b                   30.3039(3)
_cell_length_c                   8.27250(10)
_cell_angle_alpha                90
_cell_angle_beta                 90
_cell_angle_gamma                90
_cell_volume                     7596.85
loop_
_atom_site_label
_atom_site_type_symbol
_atom_site_fract_x
_atom_site_fract_y
_atom_site_fract_z
O1 O 0.41654(9) 0.28212(9) 0.0308(2)
C5 C 0.41800(15) 0.37571(13) 0.0134(4)
H2 H 0.4081 0.3638 0.1104
H4 H 0.4163 0.4394 0.0828
Eu2 Eu 0.44253(2) 0.22352(2) 0.21044(2)
Eu1 Eu 0.52648(2) 0.69253(2) 0.46044(2)
O2 O 0.45982(8) 0.73105(7) 0.5070(2)
O3 O 0.43964(9) 0.27736(8) 0.7755(2)
O4 O 0.44090(10) 0.64761(9) 0.7052(3)
O5 O 0.50408(9) 0.62600(8) 0.5905(3)
N1 N 0.44127(10) 0.36437(10) 0.7415(3)
C1 C 0.42762(11) 0.29837(11) 0.8974(3)
C2 C 0.42786(12) 0.34835(11) 0.8841(3)
C3 C 0.44607(14) 0.40741(12) 0.7270(4)
H1 H 0.4552 0.4184 0.6275
C4 C 0.46948(13) 0.61905(11) 0.6716(4)
C6 C 0.43839(14) 0.43759(13) 0.8508(4)
C7 C 0.46243(15) 0.57275(13) 0.7317(4)
C8 C 0.49262(16) 0.54010(14) 0.6919(5)
H3 H 0.5181 0.5474 0.6352
C9 C 0.42301(17) 0.42063(14) 0.9974(5)
C10 C 0.44742(16) 0.48519(13) 0.8200(5)
C11 C 0.48509(16) 0.49691(14) 0.7359(5)
H5 H 0.5056 0.4753 0.7086
C12 C 0.42620(17) 0.56155(14) 0.8231(6)
H6 H 0.4066 0.5834 0.8562
C13 C 0.41867(19) 0.51803(15) 0.8662(6)
H7 H 0.3939 0.5109 0.9271
Eu3 Eu 0.47352(2) 0.80747(2) 0.46044(2)
Eu4 Eu 0.47352(2) 0.30747(2) 0.53956(2)
Eu5 Eu 0.44253(2) 0.72352(2) 0.78956(2)
O6 O 0.46788(9) 0.66654(9) 0.2808(2)
O7 O 0.54018(8) 0.76895(7) 0.5070(2)
O8 O 0.51895(7) 0.70982(8) 0.7430(2)
O9 O 0.56036(9) 0.72264(8) 0.2245(2)
O10 O 0.60239(9) 0.69090(10) 0.5448(3)
N2 N 0.55873(10) 0.63563(10) 0.2585(3)
O1_2 O 0.08346(9) 0.71788(9) 0.5308(2)
O2_2 O 0.04018(8) 0.26895(7) 0.0070(2)
O3_2 O 0.06036(9) 0.72264(8) 0.2755(2)
O4_2 O 0.05910(10) 0.35239(9) 0.2052(3)
N1_2 N 0.05873(10) 0.63563(10) 0.2415(3)
C1_2 C 0.07238(11) 0.70163(11) 0.3974(3)
C2_2 C 0.07214(12) 0.65165(11) 0.3841(3)
C3_2 C 0.05393(14) 0.59259(12) 0.2270(4)
H1_2 H 0.0448 0.5816 0.1275
C4_2 C 0.03052(13) 0.38095(11) 0.1716(4)
C5_2 C 0.08200(15) 0.62429(13) 0.5134(4)
H2_2 H 0.0919 0.6362 0.6104
C6_2 C 0.06161(14) 0.56241(13) 0.3508(4)
C7_2 C 0.03757(15) 0.42725(13) 0.2317(4)
C8_2 C 0.00738(16) 0.45990(14) 0.1919(5)
C9_2 C 0.07699(17) 0.57937(14) 0.4974(5)
H4_2 H 0.0837 0.5606 0.5828
C10_2 C 0.05258(16) 0.51481(13) 0.3200(5)
C11_2 C 0.01491(16) 0.50309(14) 0.2359(5)
C12_2 C 0.07380(17) 0.43845(14) 0.3231(6)
H6_2 H 0.0934 0.4166 0.3562
C13_2 C 0.08133(19) 0.48197(15) 0.3662(6)
H7_2 H 0.1061 0.4891 0.4271
Eu2_2 Eu 0.05747(2) 0.77648(2) 0.71044(2)
Eu4_2 Eu 0.02648(2) 0.69253(2) 0.03956(2)
Eu5_2 Eu 0.05747(2) 0.27648(2) 0.28956(2)
Eu3_2 Eu 0.02648(2) 0.19253(2) 0.96044(2)
O6_2 O 0.03212(9) 0.33346(9) 0.7808(2)
O5_2 O 0.99592(9) 0.37400(8) 0.0905(3)
H3_2 H 0.9819 0.4526 0.1352
H5_2 H 0.9944 0.5247 0.2086
O7_2 O 0.95982(8) 0.23105(7) 0.0070(2)
O8_2 O 0.98105(7) 0.29018(8) 0.2430(2)
O10_2 O 0.89761(9) 0.30910(10) 0.0448(3)
Eu1_2 Eu 0.97352(2) 0.30747(2) 0.96044(2)
O9_2 O 0.93964(9) 0.27736(8) 0.7245(2)
N2_2 N 0.94127(10) 0.36437(10) 0.7585(3)
O3_3 O 0.47264(8) 0.68964(9) 0.0255(2)
C1_3 C 0.45163(11) 0.67762(11) 0.1474(3)
C2_3 C 0.40165(11) 0.67786(12) 0.1341(3)
C5_3 C 0.37429(13) 0.66800(15) 0.2634(4)
H2_3 H 0.3862 0.6581 0.3604
C6_3 C 0.31241(13) 0.68839(14) 0.1008(4)
C9_3 C 0.32937(14) 0.67301(17) 0.2474(5)
H4_3 H 0.3106 0.6663 0.3328
C10_3 C 0.26481(13) 0.69742(16) 0.0700(5)
C12_3 C 0.18845(14) 0.67620(17) 0.0731(6)
H6_3 H 0.1666 0.6566 0.1062
C13_3 C 0.23197(15) 0.66867(19) 0.1162(6)
H7_3 H 0.2391 0.6439 0.1771
O2_3 O 0.01895(7) 0.70982(8) 0.7570(2)
O4_3 O 0.10239(9) 0.69090(10) 0.9552(3)
O5_3 O 0.12400(8) 0.75408(9) 0.8405(3)
N1_3 N 0.38563(10) 0.69127(10) 0.9915(3)
C3_3 C 0.34259(12) 0.69607(14) 0.9770(4)
H1_3 H 0.3316 0.7052 0.8775
C4_3 C 0.13095(11) 0.71948(13) 0.9216(4)
C7_3 C 0.17725(13) 0.71243(15) 0.9817(4)
C8_3 C 0.20990(14) 0.74262(16) 0.9419(5)
H3_3 H 0.2026 0.7681 0.8852
C11_3 C 0.25309(14) 0.73509(16) 0.9859(5)
H5_3 H 0.2747 0.7556 0.9586
O8_3 O 0.04018(8) 0.76895(7) 0.9930(2)
O9_3 O 0.02736(8) 0.81036(9) 0.4745(2)
O10_3 O 0.05910(10) 0.85239(9) 0.7948(3)
N2_3 N 0.11437(10) 0.80873(10) 0.5085(3)
Eu3_3 Eu 0.94253(2) 0.72352(2) 0.71044(2)
O7_3 O 0.98105(7) 0.79018(8) 0.7570(2)
O2_4 O 0.48105(7) 0.29018(8) 0.2570(2)
O3_4 O 0.02736(8) 0.31036(9) 0.5255(2)
O4_4 O 0.39761(9) 0.30910(10) 0.4552(3)
O5_4 O 0.37600(8) 0.24592(9) 0.3405(3)
N1_4 N 0.11437(10) 0.30873(10) 0.4915(3)
C1_4 C 0.04837(11) 0.32238(11) 0.6474(3)
C2_4 C 0.09835(11) 0.32214(12) 0.6341(3)
C3_4 C 0.15741(12) 0.30393(14) 0.4770(4)
H1_4 H 0.1684 0.2948 0.3775
C4_4 C 0.36905(11) 0.28052(13) 0.4216(4)
C5_4 C 0.12571(13) 0.33200(15) 0.7634(4)
H2_4 H 0.1138 0.3419 0.8604
C6_4 C 0.18759(13) 0.31161(14) 0.6008(4)
C7_4 C 0.32275(13) 0.28757(15) 0.4817(4)
C8_4 C 0.29010(14) 0.25738(16) 0.4419(5)
H3_4 H 0.2974 0.2319 0.3852
C9_4 C 0.17063(14) 0.32699(17) 0.7474(5)
H4_4 H 0.1894 0.3337 0.8328
C10_4 C 0.23519(13) 0.30258(16) 0.5700(5)
C11_4 C 0.24691(14) 0.26491(16) 0.4859(5)
H5_4 H 0.2253 0.2444 0.4586
C12_4 C 0.31155(14) 0.32380(17) 0.5731(6)
H6_4 H 0.3334 0.3434 0.6062
C13_4 C 0.26803(15) 0.33133(19) 0.6162(6)
H7_4 H 0.2609 0.3561 0.6771
Eu3_4 Eu 0.55747(2) 0.27648(2) 0.21044(2)
O7_4 O 0.51895(7) 0.20982(8) 0.2570(2)
O8_4 O 0.45982(8) 0.23105(7) 0.4930(2)
O10_4 O 0.44090(10) 0.14761(9) 0.2948(3)
N2_4 N 0.38563(10) 0.19127(10) 0.0085(3)
O9_4 O 0.47264(8) 0.18964(9) 0.9745(2)
O5_5 O 0.00408(9) 0.12600(8) 0.0905(3)
H3_5 H 0.0181 0.0474 0.1352
O8_5 O 0.01895(7) 0.20982(8) 0.2430(2)
O10_5 O 0.10239(9) 0.19090(10) 0.0448(3)
O9_5 O 0.06036(9) 0.22264(8) 0.7245(2)
N2_5 N 0.05873(10) 0.13563(10) 0.7585(3)
O4_5 O 0.94090(10) 0.14761(9) 0.2052(3)
C4_5 C 0.96948(13) 0.11905(11) 0.1716(4)
C7_5 C 0.96243(15) 0.07275(13) 0.2317(4)
C8_5 C 0.99262(16) 0.04010(14) 0.1919(5)
C12_5 C 0.92620(17) 0.06155(14) 0.3231(6)
H6_5 H 0.9066 0.0834 0.3562
C13_5 C 0.91867(19) 0.01803(15) 0.3662(6)
H7_5 H 0.8939 0.0109 0.4271
Eu5_3 Eu 0.94253(2) 0.22352(2) 0.28956(2)
O6_3 O 0.96788(9) 0.16654(9) 0.7808(2)
O1_3 O 0.91654(9) 0.78212(9) 0.5308(2)
O3_5 O 0.93964(9) 0.77736(8) 0.2755(2)
N1_5 N 0.94127(10) 0.86437(10) 0.2415(3)
C1_5 C 0.92762(11) 0.79837(11) 0.3974(3)
C2_5 C 0.92786(12) 0.84835(11) 0.3841(3)
C3_5 C 0.94607(14) 0.90741(12) 0.2270(4)
H1_5 H 0.9552 0.9184 0.1275
C5_5 C 0.91800(15) 0.87571(13) 0.5134(4)
H2_5 H 0.9081 0.8638 0.6104
C6_5 C 0.93839(14) 0.93759(13) 0.3508(4)
C9_5 C 0.92301(17) 0.92063(14) 0.4974(5)
H4_5 H 0.9163 0.9394 0.5828
C10_5 C 0.94742(16) 0.98519(13) 0.3200(5)
C11_5 C 0.98509(16) 0.99691(14) 0.2359(5)
Eu4_3 Eu 0.97352(2) 0.80747(2) 0.03956(2)
O1_4 O 0.58346(9) 0.21788(9) 0.0308(2)
C5_6 C 0.58200(15) 0.12429(13) 0.0134(4)
H2_6 H 0.5919 0.1362 0.1104
H4_6 H 0.5837 0.0606 0.0828
O3_6 O 0.56036(9) 0.22264(8) 0.7755(2)
N1_6 N 0.55873(10) 0.13563(10) 0.7415(3)
C1_6 C 0.57238(11) 0.20163(11) 0.8974(3)
C2_6 C 0.57214(12) 0.15165(11) 0.8841(3)
C3_6 C 0.55393(14) 0.09259(12) 0.7270(4)
H1_6 H 0.5448 0.0816 0.6275
C6_6 C 0.56161(14) 0.06241(13) 0.8508(4)
C9_6 C 0.57699(17) 0.07937(14) 0.9974(5)
C10_6 C 0.55258(16) 0.01481(13) 0.8200(5)
C11_6 C 0.51491(16) 0.00309(14) 0.7359(5)
H5_5 H 0.4944 0.0247 0.7086
Eu4_4 Eu 0.52648(2) 0.19253(2) 0.53956(2)
O4_6 O 0.55910(10) 0.85239(9) 0.7052(3)
O5_6 O 0.49592(9) 0.87400(8) 0.5905(3)
C4_6 C 0.53052(13) 0.88095(11) 0.6716(4)
C7_6 C 0.53757(15) 0.92725(13) 0.7317(4)
C8_6 C 0.50738(16) 0.95990(14) 0.6919(5)
H3_6 H 0.4819 0.9526 0.6352
C12_6 C 0.57380(17) 0.93845(14) 0.8231(6)
H6_6 H 0.5934 0.9166 0.8562
C13_6 C 0.58133(19) 0.98197(15) 0.8662(6)
H7_6 H 0.6061 0.9891 0.9271
Eu5_4 Eu 0.55747(2) 0.77648(2) 0.78956(2)
O6_4 O 0.53212(9) 0.83346(9) 0.2808(2)
O8_6 O 0.48105(7) 0.79018(8) 0.7430(2)
O9_6 O 0.43964(9) 0.77736(8) 0.2245(2)
O10_6 O 0.39761(9) 0.80910(10) 0.5448(3)
N2_6 N 0.44127(10) 0.86437(10) 0.2585(3)
O3_7 O 0.97264(8) 0.18964(9) 0.5255(2)
O4_7 O 0.60239(9) 0.19090(10) 0.4552(3)
O5_7 O 0.62400(8) 0.25408(9) 0.3405(3)
N1_7 N 0.88563(10) 0.19127(10) 0.4915(3)
C1_7 C 0.95163(11) 0.17762(11) 0.6474(3)
C2_7 C 0.90165(11) 0.17786(12) 0.6341(3)
C3_7 C 0.84259(12) 0.19607(14) 0.4770(4)
H1_7 H 0.8316 0.2052 0.3775
C4_7 C 0.63095(11) 0.21948(13) 0.4216(4)
C5_7 C 0.87429(13) 0.16800(15) 0.7634(4)
H2_7 H 0.8862 0.1581 0.8604
C6_7 C 0.81241(13) 0.18839(14) 0.6008(4)
C7_7 C 0.67725(13) 0.21243(15) 0.4817(4)
C8_7 C 0.70990(14) 0.24262(16) 0.4419(5)
H3_7 H 0.7026 0.2681 0.3852
C9_7 C 0.82937(14) 0.17301(17) 0.7474(5)
H4_7 H 0.8106 0.1663 0.8328
C10_7 C 0.76481(13) 0.19742(16) 0.5700(5)
C11_7 C 0.75309(14) 0.23509(16) 0.4859(5)
H5_6 H 0.7747 0.2556 0.4586
C12_7 C 0.68845(14) 0.17620(17) 0.5731(6)
H6_7 H 0.6666 0.1566 0.6062
C13_7 C 0.73197(15) 0.16867(19) 0.6162(6)
H7_7 H 0.7391 0.1439 0.6771
O8_7 O 0.54018(8) 0.26895(7) 0.4930(2)
O10_7 O 0.55910(10) 0.35239(9) 0.2948(3)
N2_7 N 0.61437(10) 0.30873(10) 0.0085(3)
O9_7 O 0.52736(8) 0.31036(9) 0.9745(2)
O3_8 O 0.52736(8) 0.81036(9) 0.0255(2)
C1_8 C 0.54837(11) 0.82238(11) 0.1474(3)
C2_8 C 0.59835(11) 0.82214(12) 0.1341(3)
C5_8 C 0.62571(13) 0.83200(15) 0.2634(4)
H2_8 H 0.6138 0.8419 0.3604
C6_8 C 0.68759(13) 0.81161(14) 0.1008(4)
C9_8 C 0.67063(14) 0.82699(17) 0.2474(5)
H4_8 H 0.6894 0.8337 0.3328
C10_8 C 0.73519(13) 0.80258(16) 0.0700(5)
C12_8 C 0.81155(14) 0.82380(17) 0.0731(6)
H6_8 H 0.8334 0.8434 0.1062
C13_8 C 0.76803(15) 0.83133(19) 0.1162(6)
H7_8 H 0.7609 0.8561 0.1771
O4_8 O 0.89761(9) 0.80910(10) 0.9552(3)
O5_8 O 0.87600(8) 0.74592(9) 0.8405(3)
N1_8 N 0.61437(10) 0.80873(10) 0.9915(3)
C3_8 C 0.65741(12) 0.80393(14) 0.9770(4)
H1_8 H 0.6684 0.7948 0.8775
C4_8 C 0.86905(11) 0.78052(13) 0.9216(4)
C7_8 C 0.82275(13) 0.78757(15) 0.9817(4)
C8_8 C 0.79010(14) 0.75738(16) 0.9419(5)
H3_8 H 0.7974 0.7319 0.8852
C11_8 C 0.74691(14) 0.76491(16) 0.9859(5)
H5_7 H 0.7253 0.7444 0.9586
O8_8 O 0.95982(8) 0.73105(7) 0.9930(2)
O9_8 O 0.97264(8) 0.68964(9) 0.4745(2)
O10_8 O 0.94090(10) 0.64761(9) 0.7948(3)
N2_8 N 0.88563(10) 0.69127(10) 0.5085(3)
O5_9 O 0.49592(9) 0.37400(8) 0.4095(3)
C1_9 C 0.57238(11) 0.70163(11) 0.1026(3)
C2_9 C 0.57214(12) 0.65165(11) 0.1159(3)
C3_9 C 0.55393(14) 0.59259(12) 0.2730(4)
H1_9 H 0.5448 0.5816 0.3725
C4_9 C 0.53052(13) 0.38095(11) 0.3284(4)
C6_9 C 0.56161(14) 0.56241(13) 0.1492(4)
C7_9 C 0.53757(15) 0.42725(13) 0.2683(4)
C8_9 C 0.50738(16) 0.45990(14) 0.3081(5)
H3_9 H 0.4819 0.4526 0.3648
C9_9 C 0.57699(17) 0.57937(14) 0.0026(5)
C10_9 C 0.55258(16) 0.51481(13) 0.1800(5)
C11_9 C 0.51491(16) 0.50309(14) 0.2641(5)
H5_8 H 0.4944 0.5247 0.2914
C12_9 C 0.57380(17) 0.43845(14) 0.1769(6)
H6_9 H 0.5934 0.4166 0.1438
C13_9 C 0.58133(19) 0.48197(15) 0.1338(6)
H7_9 H 0.6061 0.4891 0.0729
O6_5 O 0.53212(9) 0.33346(9) 0.7192(2)
O1_5 O 0.58346(9) 0.71788(9) 0.9692(2)
C5_9 C 0.58200(15) 0.62429(13) 0.9866(4)
H2_9 H 0.5919 0.6362 0.8896
H4_9 H 0.5837 0.5606 0.9172
O5_10 O 0.00408(9) 0.62600(8) 0.9095(3)
H3_10 H 0.0181 0.5474 0.8648
H5_9 H 0.0056 0.4753 0.7914
O6_6 O 0.96788(9) 0.66654(9) 0.2192(2)
O1_6 O 0.91654(9) 0.28212(9) 0.4692(2)
C1_10 C 0.92762(11) 0.29837(11) 0.6026(3)
C2_10 C 0.92786(12) 0.34835(11) 0.6159(3)
C3_10 C 0.94607(14) 0.40741(12) 0.7730(4)
H1_10 H 0.9552 0.4184 0.8725
C4_10 C 0.96948(13) 0.61905(11) 0.8284(4)
C5_10 C 0.91800(15) 0.37571(13) 0.4866(4)
H2_10 H 0.9081 0.3638 0.3896
C6_10 C 0.93839(14) 0.43759(13) 0.6492(4)
C7_10 C 0.96243(15) 0.57275(13) 0.7683(4)
C8_10 C 0.99262(16) 0.54010(14) 0.8081(5)
C9_10 C 0.92301(17) 0.42063(14) 0.5026(5)
H4_10 H 0.9163 0.4394 0.4172
C10_10 C 0.94742(16) 0.48519(13) 0.6800(5)
C11_10 C 0.98509(16) 0.49691(14) 0.7641(5)
C12_10 C 0.92620(17) 0.56155(14) 0.6769(6)
H6_10 H 0.9066 0.5834 0.6438
C13_10 C 0.91867(19) 0.51803(15) 0.6338(6)
H7_10 H 0.8939 0.5109 0.5729
O5_11 O 0.87600(8) 0.24592(9) 0.1595(3)
C3_11 C 0.65741(12) 0.30393(14) 0.0230(4)
H1_11 H 0.6684 0.2948 0.1225
C4_11 C 0.86905(11) 0.28052(13) 0.0784(4)
C7_11 C 0.82275(13) 0.28757(15) 0.0183(4)
C8_11 C 0.79010(14) 0.25738(16) 0.0581(5)
H3_11 H 0.7974 0.2319 0.1148
C11_11 C 0.74691(14) 0.26491(16) 0.0141(5)
H5_10 H 0.7253 0.2444 0.0414
C1_11 C 0.54837(11) 0.32238(11) 0.8526(3)
C2_11 C 0.59835(11) 0.32214(12) 0.8659(3)
C5_11 C 0.62571(13) 0.33200(15) 0.7366(4)
H2_11 H 0.6138 0.3419 0.6396
C6_11 C 0.68759(13) 0.31161(14) 0.8992(4)
C9_11 C 0.67063(14) 0.32699(17) 0.7526(5)
H4_11 H 0.6894 0.3337 0.6672
C10_11 C 0.73519(13) 0.30258(16) 0.9300(5)
C12_11 C 0.81155(14) 0.32380(17) 0.9269(6)
H6_11 H 0.8334 0.3434 0.8938
C13_11 C 0.76803(15) 0.33133(19) 0.8838(6)
H7_11 H 0.7609 0.3561 0.8229
O5_12 O 0.62400(8) 0.75408(9) 0.6595(3)
C1_12 C 0.95163(11) 0.67762(11) 0.3526(3)
C2_12 C 0.90165(11) 0.67786(12) 0.3659(3)
C3_12 C 0.84259(12) 0.69607(14) 0.5230(4)
H1_12 H 0.8316 0.7052 0.6225
C4_12 C 0.63095(11) 0.71948(13) 0.5784(4)
C5_12 C 0.87429(13) 0.66800(15) 0.2366(4)
H2_12 H 0.8862 0.6581 0.1396
C6_12 C 0.81241(13) 0.68839(14) 0.3992(4)
C7_12 C 0.67725(13) 0.71243(15) 0.5183(4)
C8_12 C 0.70990(14) 0.74262(16) 0.5581(5)
H3_12 H 0.7026 0.7681 0.6148
C9_12 C 0.82937(14) 0.67301(17) 0.2526(5)
H4_12 H 0.8106 0.6663 0.1672
C10_12 C 0.76481(13) 0.69742(16) 0.4300(5)
C11_12 C 0.75309(14) 0.73509(16) 0.5141(5)
H5_11 H 0.7747 0.7556 0.5414
C12_12 C 0.68845(14) 0.67620(17) 0.4269(6)
H6_12 H 0.6666 0.6566 0.3938
C13_12 C 0.73197(15) 0.66867(19) 0.3838(6)
H7_12 H 0.7391 0.6439 0.3229
O1_7 O 0.08346(9) 0.21788(9) 0.4692(2)
C1_13 C 0.07238(11) 0.20163(11) 0.6026(3)
C2_13 C 0.07214(12) 0.15165(11) 0.6159(3)
C3_13 C 0.05393(14) 0.09259(12) 0.7730(4)
H1_13 H 0.0448 0.0816 0.8725
C5_13 C 0.08200(15) 0.12429(13) 0.4866(4)
H2_13 H 0.0919 0.1362 0.3896
C6_13 C 0.06161(14) 0.06241(13) 0.6492(4)
C9_13 C 0.07699(17) 0.07937(14) 0.5026(5)
H4_13 H 0.0837 0.0606 0.4172
C10_13 C 0.05258(16) 0.01481(13) 0.6800(5)
C11_13 C 0.01491(16) 0.00309(14) 0.7641(5)
O6_7 O 0.03212(9) 0.83346(9) 0.2192(2)
C4_13 C 0.03052(13) 0.88095(11) 0.8284(4)
C7_13 C 0.03757(15) 0.92725(13) 0.7683(4)
C8_13 C 0.00738(16) 0.95990(14) 0.8081(5)
C12_13 C 0.07380(17) 0.93845(14) 0.6769(6)
H6_13 H 0.0934 0.9166 0.6438
C13_13 C 0.08133(19) 0.98197(15) 0.6338(6)
H7_13 H 0.1061 0.9891 0.5729
O5_13 O 0.99592(9) 0.87400(8) 0.9095(3)
H3_13 H 0.9819 0.9526 0.8648
O5_14 O 0.50408(9) 0.12600(8) 0.4095(3)
C4_14 C 0.46948(13) 0.11905(11) 0.3284(4)
C7_14 C 0.46243(15) 0.07275(13) 0.2683(4)
C8_14 C 0.49262(16) 0.04010(14) 0.3081(5)
H3_14 H 0.5181 0.0474 0.3648
C12_14 C 0.42620(17) 0.06155(14) 0.1769(6)
H6_14 H 0.4066 0.0834 0.1438
C13_14 C 0.41867(19) 0.01803(15) 0.1338(6)
H7_14 H 0.3939 0.0109 0.0729
O6_8 O 0.46788(9) 0.16654(9) 0.7192(2)
C1_14 C 0.42762(11) 0.79837(11) 0.1026(3)
C2_14 C 0.42786(12) 0.84835(11) 0.1159(3)
C3_14 C 0.44607(14) 0.90741(12) 0.2730(4)
H1_14 H 0.4552 0.9184 0.3725
C6_14 C 0.43839(14) 0.93759(13) 0.1492(4)
C9_14 C 0.42301(17) 0.92063(14) 0.0026(5)
C10_14 C 0.44742(16) 0.98519(13) 0.1800(5)
C11_14 C 0.48509(16) 0.99691(14) 0.2641(5)
H5_12 H 0.5056 0.9753 0.2914
O1_8 O 0.41654(9) 0.78212(9) 0.9692(2)
C5_14 C 0.41800(15) 0.87571(13) 0.9866(4)
H2_14 H 0.4081 0.8638 0.8896
H4_14 H 0.4163 0.9394 0.9172
O5_15 O 0.37600(8) 0.74592(9) 0.6595(3)
C1_15 C 0.04837(11) 0.82238(11) 0.3526(3)
C2_15 C 0.09835(11) 0.82214(12) 0.3659(3)
C3_15 C 0.15741(12) 0.80393(14) 0.5230(4)
H1_15 H 0.1684 0.7948 0.6225
C4_15 C 0.36905(11) 0.78052(13) 0.5784(4)
C5_15 C 0.12571(13) 0.83200(15) 0.2366(4)
H2_15 H 0.1138 0.8419 0.1396
C6_15 C 0.18759(13) 0.81161(14) 0.3992(4)
C7_15 C 0.32275(13) 0.78757(15) 0.5183(4)
C8_15 C 0.29010(14) 0.75738(16) 0.5581(5)
H3_15 H 0.2974 0.7319 0.6148
C9_15 C 0.17063(14) 0.82699(17) 0.2526(5)
H4_15 H 0.1894 0.8337 0.1672
C10_15 C 0.23519(13) 0.80258(16) 0.4300(5)
C11_15 C 0.24691(14) 0.76491(16) 0.5141(5)
H5_13 H 0.2253 0.7444 0.5414
C12_15 C 0.31155(14) 0.82380(17) 0.4269(6)
H6_15 H 0.3334 0.8434 0.3938
C13_15 C 0.26803(15) 0.83133(19) 0.3838(6)
H7_15 H 0.2609 0.8561 0.3229
O5_16 O 0.12400(8) 0.25408(9) 0.1595(3)
C3_16 C 0.34259(12) 0.19607(14) 0.0230(4)
H1_16 H 0.3316 0.2052 0.1225
C4_16 C 0.13095(11) 0.21948(13) 0.0784(4)
C7_16 C 0.17725(13) 0.21243(15) 0.0183(4)
C8_16 C 0.20990(14) 0.24262(16) 0.0581(5)
H3_16 H 0.2026 0.2681 0.1148
C11_16 C 0.25309(14) 0.23509(16) 0.0141(5)
H5_14 H 0.2747 0.2556 0.0414
C1_16 C 0.45163(11) 0.17762(11) 0.8526(3)
C2_16 C 0.40165(11) 0.17786(12) 0.8659(3)
C5_16 C 0.37429(13) 0.16800(15) 0.7366(4)
H2_16 H 0.3862 0.1581 0.6396
C6_16 C 0.31241(13) 0.18839(14) 0.8992(4)
C9_16 C 0.32937(14) 0.17301(17) 0.7526(5)
H4_16 H 0.3106 0.1663 0.6672
C10_16 C 0.26481(13) 0.19742(16) 0.9300(5)
C12_16 C 0.18845(14) 0.17620(17) 0.9269(6)
H6_16 H 0.1666 0.1566 0.8938
C13_16 C 0.23197(15) 0.16867(19) 0.8838(6)
H7_16 H 0.2391 0.1439 0.8229
H5_15 H 0.0056 0.9753 0.2086
H5_16 H 0.9944 0.0247 0.7914
loop_
_geom_bond_atom_site_label_1
_geom_bond_atom_site_label_2
_geom_bond_site_symmetry_1
_geom_bond_site_symmetry_2
C5 H2 1_555 1_555
Eu2 O1 1_555 1_555
Eu1 O2 1_555 1_555
O2 Eu3 1_555 1_555
O3 C1 1_555 1_555
O4 C4 1_555 1_555
O5 Eu1 1_555 1_555
N1 C2 1_555 1_555
C1 C2 1_555 1_555
C3 N1 1_555 1_555
H1 C3 1_555 1_555
C4 O5 1_555 1_555
C6 C3 1_555 1_555
C7 C4 1_555 1_555
C8 C7 1_555 1_555
H3 C8 1_555 1_555
C10 C6 1_555 1_555
C11 C8 1_555 1_555
H5 C11 1_555 1_555
C12 C7 1_555 1_555
H6 C12 1_555 1_555
C13 C10 1_555 1_555
H7 C13 1_555 1_555
Eu3 O7 1_555 1_555
Eu4 O3 1_555 1_555
Eu5 O2 1_555 1_555
O6 Eu1 1_555 1_555
O7 Eu1 1_555 1_555
O8 Eu1 1_555 1_555
O9 Eu1 1_555 1_555
O10 Eu1 1_555 1_555
N2 Eu1 1_555 1_555
O4 Eu5 1_555 1_555
N1 Eu4 1_555 1_555
C6 C9 1_555 1_555
C10 C11 1_555 1_555
C12 C13 1_555 1_555
Eu5 O8 1_555 1_555
O1_2 C1_2 1_555 1_555
O3_2 C1_2 1_555 1_555
O4_2 C4_2 1_555 1_555
N1_2 C2_2 1_555 1_555
C1_2 C2_2 1_555 1_555
C2_2 C5_2 1_555 1_555
C3_2 N1_2 1_555 1_555
H1_2 C3_2 1_555 1_555
C5_2 H2_2 1_555 1_555
C6_2 C3_2 1_555 1_555
C7_2 C4_2 1_555 1_555
C8_2 C7_2 1_555 1_555
C9_2 C5_2 1_555 1_555
H4_2 C9_2 1_555 1_555
C10_2 C6_2 1_555 1_555
C11_2 C8_2 1_555 1_555
C12_2 C7_2 1_555 1_555
H6_2 C12_2 1_555 1_555
C13_2 C10_2 1_555 1_555
H7_2 C13_2 1_555 1_555
Eu2_2 O1_2 1_555 1_555
Eu4_2 O3_2 1_555 1_555
Eu5_2 O2_2 1_555 1_555
O4_2 Eu5_2 1_555 1_555
N1_2 Eu4_2 1_555 1_555
C6_2 C9_2 1_555 1_555
C10_2 C11_2 1_555 1_555
C12_2 C13_2 1_555 1_555
O9_2 Eu1_2 1_555 1_555
N2_2 Eu1_2 1_555 1_555
O6 C1_3 1_555 1_555
O3_3 C1_3 1_555 1_555
C1_3 C2_3 1_555 1_555
C2_3 C5_3 1_555 1_555
C5_3 H2_3 1_555 1_555
C9_3 C5_3 1_555 1_555
H4_3 C9_3 1_555 1_555
C10_3 C6_3 1_555 1_555
H6_3 C12_3 1_555 1_555
C13_3 C10_3 1_555 1_555
H7_3 C13_3 1_555 1_555
C6_3 C9_3 1_555 1_555
C12_3 C13_3 1_555 1_555
Eu2_2 O2_3 1_555 1_555
O4_3 C4_3 1_555 1_555
O5_3 Eu2_2 1_555 1_555
C3_3 N1_3 1_555 1_555
H1_3 C3_3 1_555 1_555
C4_3 O5_3 1_555 1_555
C7_3 C4_3 1_555 1_555
C8_3 C7_3 1_555 1_555
H3_3 C8_3 1_555 1_555
C11_3 C8_3 1_555 1_555
H5_3 C11_3 1_555 1_555
O8_3 Eu2_2 1_555 1_555
O9_3 Eu2_2 1_555 1_555
O10_3 Eu2_2 1_555 1_555
N2_3 Eu2_2 1_555 1_555
N1_3 Eu5 1_555 1_555
Eu3_3 O7_3 1_555 1_555
Eu2 O2_4 1_555 1_555
O6_2 C1_4 1_555 1_555
O2_4 Eu3_4 1_555 1_555
O3_4 C1_4 1_555 1_555
O4_4 C4_4 1_555 1_555
O5_4 Eu2 1_555 1_555
N1_4 C2_4 1_555 1_555
C1_4 C2_4 1_555 1_555
C2_4 C5_4 1_555 1_555
C3_4 N1_4 1_555 1_555
H1_4 C3_4 1_555 1_555
C4_4 O5_4 1_555 1_555
C5_4 H2_4 1_555 1_555
C6_4 C3_4 1_555 1_555
C7_4 C4_4 1_555 1_555
C8_4 C7_4 1_555 1_555
H3_4 C8_4 1_555 1_555
C9_4 C5_4 1_555 1_555
H4_4 C9_4 1_555 1_555
C10_4 C6_4 1_555 1_555
C11_4 C8_4 1_555 1_555
H5_4 C11_4 1_555 1_555
C12_4 C7_4 1_555 1_555
H6_4 C12_4 1_555 1_555
C13_4 C10_4 1_555 1_555
H7_4 C13_4 1_555 1_555
Eu3_4 O7_4 1_555 1_555
Eu5_2 O3_4 1_555 1_555
Eu4 O2_4 1_555 1_555
O7_4 Eu2 1_555 1_555
O8_4 Eu2 1_555 1_555
O10_4 Eu2 1_555 1_555
N2_4 Eu2 1_555 1_555
O4_4 Eu4 1_555 1_555
N1_4 Eu5_2 1_555 1_555
C6_4 C9_4 1_555 1_555
C10_4 C11_4 1_555 1_555
C12_4 C13_4 1_555 1_555
Eu4 O8_4 1_555 1_555
O9_5 Eu3_2 1_555 1_555
N2_5 Eu3_2 1_555 1_555
O4_5 C4_5 1_555 1_555
C7_5 C4_5 1_555 1_555
C8_5 C7_5 1_555 1_555
C12_5 C7_5 1_555 1_555
H6_5 C12_5 1_555 1_555
H7_5 C13_5 1_555 1_555
Eu5_3 O7_2 1_555 1_555
O4_5 Eu5_3 1_555 1_555
C12_5 C13_5 1_555 1_555
O1_3 C1_5 1_555 1_555
O3_5 C1_5 1_555 1_555
N1_5 C2_5 1_555 1_555
C1_5 C2_5 1_555 1_555
C2_5 C5_5 1_555 1_555
C3_5 N1_5 1_555 1_555
H1_5 C3_5 1_555 1_555
C5_5 H2_5 1_555 1_555
C6_5 C3_5 1_555 1_555
C9_5 C5_5 1_555 1_555
H4_5 C9_5 1_555 1_555
C10_5 C6_5 1_555 1_555
Eu3_3 O1_3 1_555 1_555
Eu4_3 O3_5 1_555 1_555
N1_5 Eu4_3 1_555 1_555
C6_5 C9_5 1_555 1_555
C10_5 C11_5 1_555 1_555
C5_6 H2_6 1_555 1_555
Eu3_4 O1_4 1_555 1_555
O3_6 C1_6 1_555 1_555
N1_6 C2_6 1_555 1_555
C1_6 C2_6 1_555 1_555
C3_6 N1_6 1_555 1_555
H1_6 C3_6 1_555 1_555
C6_6 C3_6 1_555 1_555
C10_6 C6_6 1_555 1_555
H5_5 C11_6 1_555 1_555
Eu4_4 O3_6 1_555 1_555
N1_6 Eu4_4 1_555 1_555
C6_6 C9_6 1_555 1_555
C10_6 C11_6 1_555 1_555
O4_6 C4_6 1_555 1_555
O5_6 Eu3 1_555 1_555
C4_6 O5_6 1_555 1_555
C7_6 C4_6 1_555 1_555
C8_6 C7_6 1_555 1_555
H3_6 C8_6 1_555 1_555
C12_6 C7_6 1_555 1_555
H6_6 C12_6 1_555 1_555
H7_6 C13_6 1_555 1_555
Eu5_4 O7 1_555 1_555
O6_4 Eu3 1_555 1_555
O8_6 Eu3 1_555 1_555
O9_6 Eu3 1_555 1_555
O10_6 Eu3 1_555 1_555
N2_6 Eu3 1_555 1_555
O4_6 Eu5_4 1_555 1_555
C12_6 C13_6 1_555 1_555
Eu5_4 O8_6 1_555 1_555
O6_3 C1_7 1_555 1_555
O3_7 C1_7 1_555 1_555
O4_7 C4_7 1_555 1_555
O5_7 Eu3_4 1_555 1_555
N1_7 C2_7 1_555 1_555
C1_7 C2_7 1_555 1_555
C2_7 C5_7 1_555 1_555
C3_7 N1_7 1_555 1_555
H1_7 C3_7 1_555 1_555
C4_7 O5_7 1_555 1_555
C5_7 H2_7 1_555 1_555
C6_7 C3_7 1_555 1_555
C7_7 C4_7 1_555 1_555
C8_7 C7_7 1_555 1_555
H3_7 C8_7 1_555 1_555
C9_7 C5_7 1_555 1_555
H4_7 C9_7 1_555 1_555
C10_7 C6_7 1_555 1_555
C11_7 C8_7 1_555 1_555
H5_6 C11_7 1_555 1_555
C12_7 C7_7 1_555 1_555
H6_7 C12_7 1_555 1_555
C13_7 C10_7 1_555 1_555
H7_7 C13_7 1_555 1_555
Eu5_3 O3_7 1_555 1_555
Eu4_4 O7_4 1_555 1_555
O8_7 Eu3_4 1_555 1_555
O10_7 Eu3_4 1_555 1_555
N2_7 Eu3_4 1_555 1_555
O4_7 Eu4_4 1_555 1_555
N1_7 Eu5_3 1_555 1_555
C6_7 C9_7 1_555 1_555
C10_7 C11_7 1_555 1_555
C12_7 C13_7 1_555 1_555
Eu4_4 O8_7 1_555 1_555
O6_4 C1_8 1_555 1_555
O3_8 C1_8 1_555 1_555
C1_8 C2_8 1_555 1_555
C2_8 C5_8 1_555 1_555
C5_8 H2_8 1_555 1_555
C9_8 C5_8 1_555 1_555
H4_8 C9_8 1_555 1_555
C10_8 C6_8 1_555 1_555
H6_8 C12_8 1_555 1_555
C13_8 C10_8 1_555 1_555
H7_8 C13_8 1_555 1_555
C6_8 C9_8 1_555 1_555
C12_8 C13_8 1_555 1_555
O4_8 C4_8 1_555 1_555
O5_8 Eu3_3 1_555 1_555
C3_8 N1_8 1_555 1_555
H1_8 C3_8 1_555 1_555
C4_8 O5_8 1_555 1_555
C7_8 C4_8 1_555 1_555
C8_8 C7_8 1_555 1_555
H3_8 C8_8 1_555 1_555
C11_8 C8_8 1_555 1_555
H5_7 C11_8 1_555 1_555
O8_8 Eu3_3 1_555 1_555
O9_8 Eu3_3 1_555 1_555
O10_8 Eu3_3 1_555 1_555
N2_8 Eu3_3 1_555 1_555
N1_8 Eu5_4 1_555 1_555
Eu4 O8_7 1_555 1_555
O9 C1_9 1_555 1_555
O10_7 C4_9 1_555 1_555
O5_9 Eu4 1_555 1_555
N2 C2_9 1_555 1_555
C1_9 C2_9 1_555 1_555
C3_9 N2 1_555 1_555
H1_9 C3_9 1_555 1_555
C4_9 O5_9 1_555 1_555
C6_9 C3_9 1_555 1_555
C7_9 C4_9 1_555 1_555
C8_9 C7_9 1_555 1_555
H3_9 C8_9 1_555 1_555
C10_9 C6_9 1_555 1_555
C11_9 C8_9 1_555 1_555
H5_8 C11_9 1_555 1_555
C12_9 C7_9 1_555 1_555
H6_9 C12_9 1_555 1_555
C13_9 C10_9 1_555 1_555
H7_9 C13_9 1_555 1_555
Eu4_4 O8_4 1_555 1_555
O6_5 Eu4 1_555 1_555
C6_9 C9_9 1_555 1_555
C10_9 C11_9 1_555 1_555
C12_9 C13_9 1_555 1_555
C5_9 H2_9 1_555 1_555
Eu5_4 O1_5 1_555 1_555
O1_6 C1_10 1_555 1_555
O9_2 C1_10 1_555 1_555
O10_8 C4_10 1_555 1_555
N2_2 C2_10 1_555 1_555
C1_10 C2_10 1_555 1_555
C2_10 C5_10 1_555 1_555
C3_10 N2_2 1_555 1_555
H1_10 C3_10 1_555 1_555
C5_10 H2_10 1_555 1_555
C6_10 C3_10 1_555 1_555
C7_10 C4_10 1_555 1_555
C8_10 C7_10 1_555 1_555
C9_10 C5_10 1_555 1_555
H4_10 C9_10 1_555 1_555
C10_10 C6_10 1_555 1_555
C11_10 C8_10 1_555 1_555
C12_10 C7_10 1_555 1_555
H6_10 C12_10 1_555 1_555
C13_10 C10_10 1_555 1_555
H7_10 C13_10 1_555 1_555
Eu5_3 O1_6 1_555 1_555
C6_10 C9_10 1_555 1_555
C10_10 C11_10 1_555 1_555
C12_10 C13_10 1_555 1_555
Eu5_2 O8_5 1_555 1_555
Eu5_3 O8_2 1_555 1_555
O10_2 C4_11 1_555 1_555
O5_11 Eu5_3 1_555 1_555
C3_11 N2_7 1_555 1_555
H1_11 C3_11 1_555 1_555
C4_11 O5_11 1_555 1_555
C7_11 C4_11 1_555 1_555
C8_11 C7_11 1_555 1_555
H3_11 C8_11 1_555 1_555
C11_11 C8_11 1_555 1_555
H5_10 C11_11 1_555 1_555
O6_5 C1_11 1_555 1_555
O9_7 C1_11 1_555 1_555
C1_11 C2_11 1_555 1_555
C2_11 C5_11 1_555 1_555
C5_11 H2_11 1_555 1_555
C9_11 C5_11 1_555 1_555
H4_11 C9_11 1_555 1_555
C10_11 C6_11 1_555 1_555
H6_11 C12_11 1_555 1_555
C13_11 C10_11 1_555 1_555
H7_11 C13_11 1_555 1_555
C6_11 C9_11 1_555 1_555
C12_11 C13_11 1_555 1_555
Eu5_4 O8 1_555 1_555
O6_6 C1_12 1_555 1_555
O9_8 C1_12 1_555 1_555
O10 C4_12 1_555 1_555
O5_12 Eu5_4 1_555 1_555
N2_8 C2_12 1_555 1_555
C1_12 C2_12 1_555 1_555
C2_12 C5_12 1_555 1_555
C3_12 N2_8 1_555 1_555
H1_12 C3_12 1_555 1_555
C4_12 O5_12 1_555 1_555
C5_12 H2_12 1_555 1_555
C6_12 C3_12 1_555 1_555
C7_12 C4_12 1_555 1_555
C8_12 C7_12 1_555 1_555
H3_12 C8_12 1_555 1_555
C9_12 C5_12 1_555 1_555
H4_12 C9_12 1_555 1_555
C10_12 C6_12 1_555 1_555
C11_12 C8_12 1_555 1_555
H5_11 C11_12 1_555 1_555
C12_12 C7_12 1_555 1_555
H6_12 C12_12 1_555 1_555
C13_12 C10_12 1_555 1_555
H7_12 C13_12 1_555 1_555
Eu5 O8_6 1_555 1_555
C6_12 C9_12 1_555 1_555
C10_12 C11_12 1_555 1_555
C12_12 C13_12 1_555 1_555
O1_7 C1_13 1_555 1_555
O9_5 C1_13 1_555 1_555
N2_5 C2_13 1_555 1_555
C1_13 C2_13 1_555 1_555
C2_13 C5_13 1_555 1_555
C3_13 N2_5 1_555 1_555
H1_13 C3_13 1_555 1_555
C5_13 H2_13 1_555 1_555
C6_13 C3_13 1_555 1_555
C9_13 C5_13 1_555 1_555
H4_13 C9_13 1_555 1_555
C10_13 C6_13 1_555 1_555
Eu5_2 O1_7 1_555 1_555
C6_13 C9_13 1_555 1_555
C10_13 C11_13 1_555 1_555
O10_3 C4_13 1_555 1_555
C7_13 C4_13 1_555 1_555
C8_13 C7_13 1_555 1_555
C12_13 C7_13 1_555 1_555
H6_13 C12_13 1_555 1_555
H7_13 C13_13 1_555 1_555
C12_13 C13_13 1_555 1_555
O10_4 C4_14 1_555 1_555
O5_14 Eu4_4 1_555 1_555
C4_14 O5_14 1_555 1_555
C7_14 C4_14 1_555 1_555
C8_14 C7_14 1_555 1_555
H3_14 C8_14 1_555 1_555
C12_14 C7_14 1_555 1_555
H6_14 C12_14 1_555 1_555
H7_14 C13_14 1_555 1_555
O6_8 Eu4_4 1_555 1_555
C12_14 C13_14 1_555 1_555
O9_6 C1_14 1_555 1_555
N2_6 C2_14 1_555 1_555
C1_14 C2_14 1_555 1_555
C3_14 N2_6 1_555 1_555
H1_14 C3_14 1_555 1_555
C6_14 C3_14 1_555 1_555
C10_14 C6_14 1_555 1_555
H5_12 C11_14 1_555 1_555
C6_14 C9_14 1_555 1_555
C10_14 C11_14 1_555 1_555
C5_14 H2_14 1_555 1_555
Eu5 O1_8 1_555 1_555
O6_7 C1_15 1_555 1_555
O9_3 C1_15 1_555 1_555
O10_6 C4_15 1_555 1_555
O5_15 Eu5 1_555 1_555
N2_3 C2_15 1_555 1_555
C1_15 C2_15 1_555 1_555
C2_15 C5_15 1_555 1_555
C3_15 N2_3 1_555 1_555
H1_15 C3_15 1_555 1_555
C4_15 O5_15 1_555 1_555
C5_15 H2_15 1_555 1_555
C6_15 C3_15 1_555 1_555
C7_15 C4_15 1_555 1_555
C8_15 C7_15 1_555 1_555
H3_15 C8_15 1_555 1_555
C9_15 C5_15 1_555 1_555
H4_15 C9_15 1_555 1_555
C10_15 C6_15 1_555 1_555
C11_15 C8_15 1_555 1_555
H5_13 C11_15 1_555 1_555
C12_15 C7_15 1_555 1_555
H6_15 C12_15 1_555 1_555
C13_15 C10_15 1_555 1_555
H7_15 C13_15 1_555 1_555
C6_15 C9_15 1_555 1_555
C10_15 C11_15 1_555 1_555
C12_15 C13_15 1_555 1_555
O10_5 C4_16 1_555 1_555
O5_16 Eu5_2 1_555 1_555
C3_16 N2_4 1_555 1_555
H1_16 C3_16 1_555 1_555
C4_16 O5_16 1_555 1_555
C7_16 C4_16 1_555 1_555
C8_16 C7_16 1_555 1_555
H3_16 C8_16 1_555 1_555
C11_16 C8_16 1_555 1_555
H5_14 C11_16 1_555 1_555
O6_8 C1_16 1_555 1_555
O9_4 C1_16 1_555 1_555
C1_16 C2_16 1_555 1_555
C2_16 C5_16 1_555 1_555
C5_16 H2_16 1_555 1_555
C9_16 C5_16 1_555 1_555
H4_16 C9_16 1_555 1_555
C10_16 C6_16 1_555 1_555
H6_16 C12_16 1_555 1_555
C13_16 C10_16 1_555 1_555
H7_16 C13_16 1_555 1_555
C6_16 C9_16 1_555 1_555
C12_16 C13_16 1_555 1_555

#END
