
###############################################################################
#
# This file contains modified crystal structure data generated from the
# MOF subset of the Cambridge Structural Database (CSD) v543 
# hosted by the Cambridge Crystallographic Data Centre (CCDC).
#
# This work is licensed under the Creative Commons
# Attribution-NonCommercial-ShareAlike 4.0 International License.
# To view a copy of this license, visit
# http://creativecommons.org/licenses/by-nc-sa/4.0/
# or send a letter to
# Creative Commons, PO Box 1866, Mountain View, CA 94042, USA.
#
# CIF created using the CSD Python API on 29 September 2022
# The structure has been converted into the P1 space group
# The structure has a 3D framework
# The original CSD entry ZUYHIM is in the monoclinic crystal system
# The framework has been calculated to contain at least 10.0% void space
# The void calculation uses a probe of radius 1.32A, grid spacing 0.4
#
###############################################################################

data_ZUYHIM
_chemical_formula_moiety         '(C320 H192 In8 N16 O64)n'
_symmetry_cell_setting           triclinic
_symmetry_space_group_name_H-M   'P 1'
_symmetry_Int_Tables_number      1
_space_group_name_Hall           'P 1'
loop_
_symmetry_equiv_pos_site_id
_symmetry_equiv_pos_as_xyz
1 x,y,z
_cell_length_a                   28.286(4)
_cell_length_b                   20.9422(3)
_cell_length_c                   27.5862(15)
_cell_angle_alpha                90
_cell_angle_beta                 120.798(6)
_cell_angle_gamma                90
_cell_volume                     14036.8
loop_
_atom_site_label
_atom_site_type_symbol
_atom_site_fract_x
_atom_site_fract_y
_atom_site_fract_z
O7 O 0.22066(13) 0.28506(11) 0.05046(10)
O8 O 0.14646(12) 0.33930(12) 0.02979(11)
C38 C 0.16939(18) 0.28968(16) 0.02343(14)
In2 In 0.231747(11) 0.376458(10) 0.095545(8)
O1 O 0.25165(12) 0.41983(11) 0.03399(10)
O2 O 0.19751(12) 0.47259(11) 0.05490(10)
C1 C 0.22233(17) 0.46901(16) 0.02796(14)
H4 H 0.1643 0.5748 0.0005
O9 O 0.18515(16) 0.41723(16) 0.14433(12)
O10 O 0.22453(16) 0.32437(14) 0.15997(12)
O11 O 0.29715(12) 0.43388(12) 0.16769(10)
O12 O 0.31967(12) 0.34072(12) 0.14940(10)
O3 O 0.18515(16) 0.58277(16) 0.64433(12)
O4 O 0.22453(16) 0.67563(14) 0.65997(12)
N1 N 0.1988(2) 0.66559(16) 0.87529(15)
C2 C 0.21651(18) 0.52020(16) 0.98821(13)
C3 C 0.24477(19) 0.51745(17) 0.95913(14)
H1 H 0.2688 0.4826 0.9655
C4 C 0.2384(2) 0.56434(18) 0.92149(17)
H2 H 0.2571 0.5612 0.9012
C5 C 0.2042(3) 0.61684(17) 0.91287(17)
C6 C 0.1771(2) 0.62045(16) 0.94200(18)
H3 H 0.1540 0.6560 0.9364
C7 C 0.1831(2) 0.57186(17) 0.98029(15)
C8 C 0.2000(2) 0.65387(19) 0.82526(17)
C9 C 0.1794(2) 0.59835(18) 0.79423(17)
H5 H 0.1657 0.5651 0.8071
C10 C 0.1791(2) 0.5919(2) 0.74390(17)
H6 H 0.1644 0.5543 0.7219
C11 C 0.1996(2) 0.6389(2) 0.72569(17)
C12 C 0.2025(2) 0.6318(2) 0.67348(16)
C13 C 0.2214(3) 0.69402(19) 0.75763(18)
H7 H 0.2367 0.7263 0.7455
C14 C 0.2208(3) 0.7017(2) 0.80677(19)
H8 H 0.2347 0.7399 0.8281
C15 C 0.1781(3) 0.72628(18) 0.87853(18)
C16 C 0.1284(3) 0.74682(19) 0.83532(19)
H9 H 0.1079 0.7196 0.8037
C17 C 0.1068(3) 0.8059(2) 0.83605(19)
H10 H 0.0724 0.8193 0.8052
C18 C 0.1367(2) 0.84539(18) 0.88300(16)
C19 C 0.1868(2) 0.82366(18) 0.92736(16)
H11 H 0.2071 0.8497 0.9598
C20 C 0.2074(3) 0.76528(19) 0.92490(17)
H12 H 0.2419 0.7516 0.9553
C21 C 0.1151(2) 0.90936(16) 0.88374(15)
C22 C 0.0870(2) 0.94535(17) 0.83361(15)
H13 H 0.0837 0.9292 0.7998
C25 C 0.0956(2) 0.99266(18) 0.93177(16)
C26 C 0.1195(2) 0.93529(18) 0.93242(16)
H16 H 0.1396 0.9127 0.9670
In3 In 0.231747(11) 0.623542(10) 0.595545(8)
O5 O 0.79715(12) 0.06612(12) 0.66769(10)
O6 O 0.81967(12) 0.15928(12) 0.64940(10)
C27 C 0.98848(18) 0.09490(17) 0.83232(15)
C28 C 0.94998(19) 0.04693(18) 0.81613(16)
H17 H 0.9583 0.0101 0.8392
C29 C 0.89967(19) 0.05157(18) 0.76707(16)
H18 H 0.8741 0.0174 0.7560
C30 C 0.88594(18) 0.10610(17) 0.73351(14)
C31 C 0.83230(18) 0.11114(18) 0.68097(15)
C32 C 0.92345(19) 0.15532(18) 0.75009(16)
H19 H 0.9141 0.1931 0.7279
C33 C 0.97467(18) 0.15030(19) 0.79869(16)
In4 In 0.731747(11) 0.123542(10) 0.595545(8)
O7_2 O 0.72066(13) 0.78506(11) 0.05046(10)
O8_2 O 0.64646(12) 0.83930(12) 0.02979(11)
H4_2 H 0.6643 0.0748 0.0005
C38_2 C 0.66939(18) 0.78968(16) 0.02343(14)
In2_2 In 0.731747(11) 0.876458(10) 0.095545(8)
O3_2 O 0.68515(16) 0.08277(16) 0.64433(12)
O4_2 O 0.72453(16) 0.17563(14) 0.65997(12)
O5_2 O 0.29715(12) 0.56612(12) 0.66769(10)
O6_2 O 0.31967(12) 0.65928(12) 0.64940(10)
N1_2 N 0.6988(2) 0.16559(16) 0.87529(15)
N2 N 0.54104(14) 0.58671(14) 0.87951(13)
C2_2 C 0.71651(18) 0.02020(16) 0.98821(13)
C3_2 C 0.74477(19) 0.01745(17) 0.95913(14)
C4_2 C 0.7384(2) 0.06434(18) 0.92149(17)
H2_2 H 0.7571 0.0612 0.9012
C5_2 C 0.7042(3) 0.11684(17) 0.91287(17)
C6_2 C 0.6771(2) 0.12045(16) 0.94200(18)
H3_2 H 0.6540 0.1560 0.9364
C7_2 C 0.6831(2) 0.07186(17) 0.98029(15)
C8_2 C 0.7000(2) 0.15387(19) 0.82526(17)
C9_2 C 0.6794(2) 0.09835(18) 0.79423(17)
H5_2 H 0.6657 0.0651 0.8071
C10_2 C 0.6791(2) 0.0919(2) 0.74390(17)
H6_2 H 0.6644 0.0543 0.7219
C11_2 C 0.6996(2) 0.1389(2) 0.72569(17)
C12_2 C 0.7025(2) 0.1318(2) 0.67348(16)
C13_2 C 0.7214(3) 0.19402(19) 0.75763(18)
H7_2 H 0.7367 0.2263 0.7455
C14_2 C 0.7208(3) 0.2017(2) 0.80677(19)
H8_2 H 0.7347 0.2399 0.8281
C15_2 C 0.6781(3) 0.22628(18) 0.87853(18)
C16_2 C 0.6284(3) 0.24682(19) 0.83532(19)
H9_2 H 0.6079 0.2196 0.8037
C17_2 C 0.6068(3) 0.3059(2) 0.83605(19)
H10_2 H 0.5724 0.3193 0.8052
C18_2 C 0.6367(2) 0.34539(18) 0.88300(16)
C19_2 C 0.6868(2) 0.32366(18) 0.92736(16)
H11_2 H 0.7071 0.3497 0.9598
C20_2 C 0.7074(3) 0.26528(19) 0.92490(17)
H12_2 H 0.7419 0.2516 0.9553
C21_2 C 0.6151(2) 0.40936(16) 0.88374(15)
C22_2 C 0.5870(2) 0.44535(17) 0.83361(15)
H13_2 H 0.5837 0.4292 0.7998
C23 C 0.56457(19) 0.50347(17) 0.83326(15)
H14 H 0.5468 0.5278 0.7994
C24 C 0.56729(19) 0.52740(17) 0.88155(15)
C25_2 C 0.5956(2) 0.49266(18) 0.93177(16)
H15 H 0.5983 0.5086 0.9653
C26_2 C 0.6195(2) 0.43529(18) 0.93242(16)
H16_2 H 0.6396 0.4127 0.9670
C27_2 C 0.48848(18) 0.59490(17) 0.83232(15)
C28_2 C 0.44998(19) 0.54693(18) 0.81613(16)
H17_2 H 0.4583 0.5101 0.8392
C29_2 C 0.39967(19) 0.55157(18) 0.76707(16)
H18_2 H 0.3741 0.5174 0.7560
C30_2 C 0.38594(18) 0.60610(17) 0.73351(14)
C31_2 C 0.33230(18) 0.61114(18) 0.68097(15)
C32_2 C 0.42345(19) 0.65532(18) 0.75009(16)
H19_2 H 0.4141 0.6931 0.7279
C33_2 C 0.47467(18) 0.65030(19) 0.79869(16)
H20 H 0.5005 0.6842 0.8094
C34 C 0.57366(18) 0.63688(17) 0.91479(14)
C35 C 0.54766(19) 0.68757(19) 0.92638(16)
H21 H 0.5089 0.6876 0.9102
C36 C 0.57893(19) 0.73671(18) 0.96115(16)
H22 H 0.5615 0.7704 0.9692
C37 C 0.63481(17) 0.73765(16) 0.98433(14)
C39 C 0.66056(18) 0.68858(16) 0.97257(15)
H23 H 0.6993 0.6890 0.9884
C40 C 0.62931(18) 0.63926(17) 0.93766(14)
H24 H 0.6470 0.6061 0.9293
O1_2 O 0.75165(12) 0.91983(11) 0.03399(10)
O2_2 O 0.69751(12) 0.97259(11) 0.05490(10)
C1_2 C 0.72233(17) 0.96901(16) 0.02796(14)
O9_2 O 0.68515(16) 0.91723(16) 0.14433(12)
O10_2 O 0.72453(16) 0.82437(14) 0.15997(12)
O11_2 O 0.79715(12) 0.93388(12) 0.16769(10)
O12_2 O 0.81967(12) 0.84072(12) 0.14940(10)
O1_3 O 0.25165(12) 0.58017(11) 0.53399(10)
O2_3 O 0.19751(12) 0.52741(11) 0.55490(10)
N1_3 N 0.1988(2) 0.33441(16) 0.37529(15)
C1_3 C 0.22233(17) 0.53099(16) 0.52796(14)
C2_3 C 0.21651(18) 0.47980(16) 0.48821(13)
C3_3 C 0.24477(19) 0.48255(17) 0.45913(14)
H1_2 H 0.2688 0.5174 0.4655
C4_3 C 0.2384(2) 0.43566(18) 0.42149(17)
H2_3 H 0.2571 0.4388 0.4012
C5_3 C 0.2042(3) 0.38316(17) 0.41287(17)
C6_3 C 0.1771(2) 0.37955(16) 0.44200(18)
H3_3 H 0.1540 0.3440 0.4364
C7_3 C 0.1831(2) 0.42814(17) 0.48029(15)
H4_3 H 0.1643 0.4252 0.5005
C8_3 C 0.2000(2) 0.34613(19) 0.32526(17)
C9_3 C 0.1794(2) 0.40165(18) 0.29423(17)
H5_3 H 0.1657 0.4349 0.3071
C10_3 C 0.1791(2) 0.4081(2) 0.24390(17)
H6_3 H 0.1644 0.4457 0.2219
C11_3 C 0.1996(2) 0.3611(2) 0.22569(17)
C12_3 C 0.2025(2) 0.3682(2) 0.17348(16)
C13_3 C 0.2214(3) 0.30598(19) 0.25763(18)
H7_3 H 0.2367 0.2737 0.2455
C14_3 C 0.2208(3) 0.2983(2) 0.30677(19)
H8_3 H 0.2347 0.2601 0.3281
C15_3 C 0.1781(3) 0.27372(18) 0.37853(18)
C16_3 C 0.1284(3) 0.25318(19) 0.33532(19)
H9_3 H 0.1079 0.2804 0.3037
C17_3 C 0.1068(3) 0.1941(2) 0.33605(19)
H10_3 H 0.0724 0.1807 0.3052
C18_3 C 0.1367(2) 0.15461(18) 0.38300(16)
C19_3 C 0.1868(2) 0.17634(18) 0.42736(16)
H11_3 H 0.2071 0.1503 0.4598
C20_3 C 0.2074(3) 0.23472(19) 0.42490(17)
H12_3 H 0.2419 0.2484 0.4553
C21_3 C 0.1151(2) 0.09064(16) 0.38374(15)
C22_3 C 0.0870(2) 0.05465(17) 0.33361(15)
H13_3 H 0.0837 0.0708 0.2998
C25_3 C 0.0956(2) 0.00734(18) 0.43177(16)
C26_3 C 0.1195(2) 0.06471(18) 0.43242(16)
H16_3 H 0.1396 0.0873 0.4670
O13 O 0.22066(13) 0.71494(11) 0.55046(10)
O14 O 0.14646(12) 0.66070(12) 0.52979(11)
N2_2 N 0.04104(14) 0.91329(14) 0.37951(13)
C23_2 C 0.06457(19) 0.99653(17) 0.33326(15)
H14_2 H 0.0468 0.9722 0.2994
C24_2 C 0.06729(19) 0.97260(17) 0.38155(15)
H15_2 H 0.0983 0.9914 0.4653
H20_2 H 0.0005 0.8158 0.3094
C34_2 C 0.07366(18) 0.86312(17) 0.41479(14)
C35_2 C 0.04766(19) 0.81243(19) 0.42638(16)
H21_2 H 0.0089 0.8124 0.4102
C36_2 C 0.07893(19) 0.76329(18) 0.46115(16)
H22_2 H 0.0615 0.7296 0.4692
C37_2 C 0.13481(17) 0.76235(16) 0.48433(14)
C38_3 C 0.16939(18) 0.71032(16) 0.52343(14)
C39_2 C 0.16056(18) 0.81142(16) 0.47257(15)
H23_2 H 0.1993 0.8110 0.4884
C40_2 C 0.12931(18) 0.86074(17) 0.43766(14)
H24_2 H 0.1470 0.8939 0.4293
C27_3 C 0.98848(18) 0.90510(17) 0.33232(15)
C28_3 C 0.94998(19) 0.95307(18) 0.31613(16)
H17_3 H 0.9583 0.9899 0.3392
C29_3 C 0.89967(19) 0.94843(18) 0.26707(16)
H18_3 H 0.8741 0.9826 0.2560
C30_3 C 0.88594(18) 0.89390(17) 0.23351(14)
C31_3 C 0.83230(18) 0.88886(18) 0.18097(15)
C32_3 C 0.92345(19) 0.84468(18) 0.25009(16)
H19_3 H 0.9141 0.8069 0.2279
C33_3 C 0.97467(18) 0.84970(19) 0.29869(16)
O1_4 O 0.75165(12) 0.08017(11) 0.53399(10)
O2_4 O 0.69751(12) 0.02741(11) 0.55490(10)
C1_4 C 0.72233(17) 0.03099(16) 0.52796(14)
H1_3 H 0.7688 0.0174 0.4655
O13_2 O 0.72066(13) 0.21494(11) 0.55046(10)
O14_2 O 0.64646(12) 0.16070(12) 0.52979(11)
N1_4 N 0.6988(2) 0.83441(16) 0.37529(15)
N2_3 N 0.54104(14) 0.41329(14) 0.37951(13)
C2_4 C 0.71651(18) 0.97980(16) 0.48821(13)
C3_4 C 0.74477(19) 0.98255(17) 0.45913(14)
C4_4 C 0.7384(2) 0.93566(18) 0.42149(17)
H2_4 H 0.7571 0.9388 0.4012
C5_4 C 0.7042(3) 0.88316(17) 0.41287(17)
C6_4 C 0.6771(2) 0.87955(16) 0.44200(18)
H3_4 H 0.6540 0.8440 0.4364
C7_4 C 0.6831(2) 0.92814(17) 0.48029(15)
H4_4 H 0.6643 0.9252 0.5005
C8_4 C 0.7000(2) 0.84613(19) 0.32526(17)
C9_4 C 0.6794(2) 0.90165(18) 0.29423(17)
H5_4 H 0.6657 0.9349 0.3071
C10_4 C 0.6791(2) 0.9081(2) 0.24390(17)
H6_4 H 0.6644 0.9457 0.2219
C11_4 C 0.6996(2) 0.8611(2) 0.22569(17)
C12_4 C 0.7025(2) 0.8682(2) 0.17348(16)
C13_4 C 0.7214(3) 0.80598(19) 0.25763(18)
H7_4 H 0.7367 0.7737 0.2455
C14_4 C 0.7208(3) 0.7983(2) 0.30677(19)
H8_4 H 0.7347 0.7601 0.3281
C15_4 C 0.6781(3) 0.77372(18) 0.37853(18)
C16_4 C 0.6284(3) 0.75318(19) 0.33532(19)
H9_4 H 0.6079 0.7804 0.3037
C17_4 C 0.6068(3) 0.6941(2) 0.33605(19)
H10_4 H 0.5724 0.6807 0.3052
C18_4 C 0.6367(2) 0.65461(18) 0.38300(16)
C19_4 C 0.6868(2) 0.67634(18) 0.42736(16)
H11_4 H 0.7071 0.6503 0.4598
C20_4 C 0.7074(3) 0.73472(19) 0.42490(17)
H12_4 H 0.7419 0.7484 0.4553
C21_4 C 0.6151(2) 0.59064(16) 0.38374(15)
C22_4 C 0.5870(2) 0.55465(17) 0.33361(15)
H13_4 H 0.5837 0.5708 0.2998
C23_3 C 0.56457(19) 0.49653(17) 0.33326(15)
H14_3 H 0.5468 0.4722 0.2994
C24_3 C 0.56729(19) 0.47260(17) 0.38155(15)
C25_4 C 0.5956(2) 0.50734(18) 0.43177(16)
H15_3 H 0.5983 0.4914 0.4653
C26_4 C 0.6195(2) 0.56471(18) 0.43242(16)
H16_4 H 0.6396 0.5873 0.4670
C27_4 C 0.48848(18) 0.40510(17) 0.33232(15)
C28_4 C 0.44998(19) 0.45307(18) 0.31613(16)
H17_4 H 0.4583 0.4899 0.3392
C29_4 C 0.39967(19) 0.44843(18) 0.26707(16)
H18_4 H 0.3741 0.4826 0.2560
C30_4 C 0.38594(18) 0.39390(17) 0.23351(14)
C31_4 C 0.33230(18) 0.38886(18) 0.18097(15)
C32_4 C 0.42345(19) 0.34468(18) 0.25009(16)
H19_4 H 0.4141 0.3069 0.2279
C33_4 C 0.47467(18) 0.34970(19) 0.29869(16)
H20_3 H 0.5005 0.3158 0.3094
C34_3 C 0.57366(18) 0.36312(17) 0.41479(14)
C35_3 C 0.54766(19) 0.31243(19) 0.42638(16)
H21_3 H 0.5089 0.3124 0.4102
C36_3 C 0.57893(19) 0.26329(18) 0.46115(16)
H22_3 H 0.5615 0.2296 0.4692
C37_3 C 0.63481(17) 0.26235(16) 0.48433(14)
C38_4 C 0.66939(18) 0.21032(16) 0.52343(14)
C39_3 C 0.66056(18) 0.31142(16) 0.47257(15)
H23_3 H 0.6993 0.3110 0.4884
C40_3 C 0.62931(18) 0.36074(17) 0.43766(14)
H24_3 H 0.6470 0.3939 0.4293
N2_4 N 0.04104(14) 0.08671(14) 0.87951(13)
C23_4 C 0.06457(19) 0.00347(17) 0.83326(15)
H14_4 H 0.0468 0.0278 0.7994
C24_4 C 0.06729(19) 0.02740(17) 0.88155(15)
H15_4 H 0.0983 0.0086 0.9653
H20_4 H 0.0005 0.1842 0.8094
C34_4 C 0.07366(18) 0.13688(17) 0.91479(14)
C35_4 C 0.04766(19) 0.18757(19) 0.92638(16)
H21_4 H 0.0089 0.1876 0.9102
C36_4 C 0.07893(19) 0.23671(18) 0.96115(16)
H22_4 H 0.0615 0.2704 0.9692
C37_4 C 0.13481(17) 0.23765(16) 0.98433(14)
C39_4 C 0.16056(18) 0.18858(16) 0.97257(15)
H23_4 H 0.1993 0.1890 0.9884
C40_4 C 0.12931(18) 0.13926(17) 0.93766(14)
H24_4 H 0.1470 0.1061 0.9293
O5_3 O 0.20285(12) 0.06612(12) 0.83231(10)
O6_3 O 0.18033(12) 0.15928(12) 0.85060(10)
C27_5 C 0.01152(18) 0.09490(17) 0.66768(15)
C28_5 C 0.05002(19) 0.04693(18) 0.68387(16)
H17_5 H 0.0417 0.0101 0.6608
C29_5 C 0.10033(19) 0.05157(18) 0.73293(16)
H18_5 H 0.1259 0.0174 0.7440
C30_5 C 0.11406(18) 0.10610(17) 0.76649(14)
C31_5 C 0.16770(18) 0.11114(18) 0.81903(15)
C32_5 C 0.07655(19) 0.15532(18) 0.74991(16)
H19_5 H 0.0859 0.1931 0.7721
C33_5 C 0.02533(18) 0.15030(19) 0.70131(16)
In4_2 In 0.268253(11) 0.123542(10) 0.904455(8)
O7_3 O 0.77934(13) 0.28506(11) 0.44954(10)
O8_3 O 0.85354(12) 0.33930(12) 0.47021(11)
N2_5 N 0.95896(14) 0.08671(14) 0.62049(13)
C23_5 C 0.93543(19) 0.00347(17) 0.66674(15)
H14_5 H 0.9532 0.0278 0.7006
C24_5 C 0.93271(19) 0.02740(17) 0.61845(15)
H15_5 H 0.9017 0.0086 0.5347
H20_5 H 0.9995 0.1842 0.6906
C34_5 C 0.92634(18) 0.13688(17) 0.58521(14)
C35_5 C 0.95234(19) 0.18757(19) 0.57362(16)
H21_5 H 0.9911 0.1876 0.5898
C36_5 C 0.92107(19) 0.23671(18) 0.53885(16)
H22_5 H 0.9385 0.2704 0.5308
C37_5 C 0.86519(17) 0.23765(16) 0.51567(14)
C38_5 C 0.83061(18) 0.28968(16) 0.47657(14)
C39_5 C 0.83944(18) 0.18858(16) 0.52743(15)
H23_5 H 0.8007 0.1890 0.5116
C40_5 C 0.87069(18) 0.13926(17) 0.56234(14)
H24_5 H 0.8530 0.1061 0.5707
In2_3 In 0.768253(11) 0.376458(10) 0.404455(8)
O1_5 O 0.74835(12) 0.41983(11) 0.46601(10)
O2_5 O 0.80249(12) 0.47259(11) 0.44510(10)
O3_3 O 0.81485(16) 0.58277(16) 0.85567(12)
O4_3 O 0.77547(16) 0.67563(14) 0.84003(12)
N1_5 N 0.8012(2) 0.66559(16) 0.62471(15)
C1_5 C 0.77767(17) 0.46901(16) 0.47204(14)
C2_5 C 0.78349(18) 0.52020(16) 0.51179(13)
C3_5 C 0.75523(19) 0.51745(17) 0.54087(14)
H1_4 H 0.7312 0.4826 0.5345
C4_5 C 0.7616(2) 0.56434(18) 0.57851(17)
H2_5 H 0.7429 0.5612 0.5988
C5_5 C 0.7958(3) 0.61684(17) 0.58713(17)
C6_5 C 0.8229(2) 0.62045(16) 0.55800(18)
H3_5 H 0.8460 0.6560 0.5636
C7_5 C 0.8169(2) 0.57186(17) 0.51971(15)
H4_5 H 0.8357 0.5748 0.4995
C8_5 C 0.8000(2) 0.65387(19) 0.67474(17)
C9_5 C 0.8206(2) 0.59835(18) 0.70577(17)
H5_5 H 0.8343 0.5651 0.6929
C10_5 C 0.8209(2) 0.5919(2) 0.75610(17)
H6_5 H 0.8356 0.5543 0.7781
C11_5 C 0.8004(2) 0.6389(2) 0.77431(17)
C12_5 C 0.7975(2) 0.6318(2) 0.82652(16)
C13_5 C 0.7786(3) 0.69402(19) 0.74237(18)
H7_5 H 0.7633 0.7263 0.7545
C14_5 C 0.7792(3) 0.7017(2) 0.69323(19)
H8_5 H 0.7653 0.7399 0.6719
C15_5 C 0.8219(3) 0.72628(18) 0.62147(18)
C16_5 C 0.8716(3) 0.74682(19) 0.66468(19)
H9_5 H 0.8921 0.7196 0.6963
C17_5 C 0.8932(3) 0.8059(2) 0.66395(19)
H10_5 H 0.9276 0.8193 0.6948
C18_5 C 0.8633(2) 0.84539(18) 0.61700(16)
C19_5 C 0.8132(2) 0.82366(18) 0.57264(16)
H11_5 H 0.7929 0.8497 0.5402
C20_5 C 0.7926(3) 0.76528(19) 0.57510(17)
H12_5 H 0.7581 0.7516 0.5447
C21_5 C 0.8849(2) 0.90936(16) 0.61626(15)
C22_5 C 0.9130(2) 0.94535(17) 0.66639(15)
H13_5 H 0.9163 0.9292 0.7002
C25_5 C 0.9044(2) 0.99266(18) 0.56823(16)
C26_5 C 0.8805(2) 0.93529(18) 0.56758(16)
H16_5 H 0.8604 0.9127 0.5330
In3_2 In 0.768253(11) 0.623542(10) 0.904455(8)
O9_3 O 0.81485(16) 0.41723(16) 0.35567(12)
O10_3 O 0.77547(16) 0.32437(14) 0.34003(12)
O11_3 O 0.70285(12) 0.43388(12) 0.33231(10)
O12_3 O 0.68033(12) 0.34072(12) 0.35060(10)
O3_4 O 0.31485(16) 0.08277(16) 0.85567(12)
O4_4 O 0.27547(16) 0.17563(14) 0.84003(12)
O5_4 O 0.70285(12) 0.56612(12) 0.83231(10)
O6_4 O 0.68033(12) 0.65928(12) 0.85060(10)
O7_4 O 0.27934(13) 0.78506(11) 0.44954(10)
O8_4 O 0.35354(12) 0.83930(12) 0.47021(11)
N1_6 N 0.3012(2) 0.16559(16) 0.62471(15)
N2_6 N 0.45896(14) 0.58671(14) 0.62049(13)
C2_6 C 0.28349(18) 0.02020(16) 0.51179(13)
C3_6 C 0.25523(19) 0.01745(17) 0.54087(14)
C4_6 C 0.2616(2) 0.06434(18) 0.57851(17)
H2_6 H 0.2429 0.0612 0.5988
C5_6 C 0.2958(3) 0.11684(17) 0.58713(17)
C6_6 C 0.3229(2) 0.12045(16) 0.55800(18)
H3_6 H 0.3460 0.1560 0.5636
C7_6 C 0.3169(2) 0.07186(17) 0.51971(15)
H4_6 H 0.3357 0.0748 0.4995
C8_6 C 0.3000(2) 0.15387(19) 0.67474(17)
C9_6 C 0.3206(2) 0.09835(18) 0.70577(17)
H5_6 H 0.3343 0.0651 0.6929
C10_6 C 0.3209(2) 0.0919(2) 0.75610(17)
H6_6 H 0.3356 0.0543 0.7781
C11_6 C 0.3004(2) 0.1389(2) 0.77431(17)
C12_6 C 0.2975(2) 0.1318(2) 0.82652(16)
C13_6 C 0.2786(3) 0.19402(19) 0.74237(18)
H7_6 H 0.2633 0.2263 0.7545
C14_6 C 0.2792(3) 0.2017(2) 0.69323(19)
H8_6 H 0.2653 0.2399 0.6719
C15_6 C 0.3219(3) 0.22628(18) 0.62147(18)
C16_6 C 0.3716(3) 0.24682(19) 0.66468(19)
H9_6 H 0.3921 0.2196 0.6963
C17_6 C 0.3932(3) 0.3059(2) 0.66395(19)
H10_6 H 0.4276 0.3193 0.6948
C18_6 C 0.3633(2) 0.34539(18) 0.61700(16)
C19_6 C 0.3132(2) 0.32366(18) 0.57264(16)
H11_6 H 0.2929 0.3497 0.5402
C20_6 C 0.2926(3) 0.26528(19) 0.57510(17)
H12_6 H 0.2581 0.2516 0.5447
C21_6 C 0.3849(2) 0.40936(16) 0.61626(15)
C22_6 C 0.4130(2) 0.44535(17) 0.66639(15)
H13_6 H 0.4163 0.4292 0.7002
C23_6 C 0.43543(19) 0.50347(17) 0.66674(15)
H14_6 H 0.4532 0.5278 0.7006
C24_6 C 0.43271(19) 0.52740(17) 0.61845(15)
C25_6 C 0.4044(2) 0.49266(18) 0.56823(16)
H15_6 H 0.4017 0.5086 0.5347
C26_6 C 0.3805(2) 0.43529(18) 0.56758(16)
H16_6 H 0.3604 0.4127 0.5330
C27_6 C 0.51152(18) 0.59490(17) 0.66768(15)
C28_6 C 0.55002(19) 0.54693(18) 0.68387(16)
H17_6 H 0.5417 0.5101 0.6608
C29_6 C 0.60033(19) 0.55157(18) 0.73293(16)
H18_6 H 0.6259 0.5174 0.7440
C30_6 C 0.61406(18) 0.60610(17) 0.76649(14)
C31_6 C 0.66770(18) 0.61114(18) 0.81903(15)
C32_6 C 0.57655(19) 0.65532(18) 0.74991(16)
H19_6 H 0.5859 0.6931 0.7721
C33_6 C 0.52533(18) 0.65030(19) 0.70131(16)
H20_6 H 0.4995 0.6842 0.6906
C34_6 C 0.42634(18) 0.63688(17) 0.58521(14)
C35_6 C 0.45234(19) 0.68757(19) 0.57362(16)
H21_6 H 0.4911 0.6876 0.5898
C36_6 C 0.42107(19) 0.73671(18) 0.53885(16)
H22_6 H 0.4385 0.7704 0.5308
C37_6 C 0.36519(17) 0.73765(16) 0.51567(14)
C38_6 C 0.33061(18) 0.78968(16) 0.47657(14)
C39_6 C 0.33944(18) 0.68858(16) 0.52743(15)
H23_6 H 0.3007 0.6890 0.5116
C40_6 C 0.37069(18) 0.63926(17) 0.56234(14)
H24_6 H 0.3530 0.6061 0.5707
In2_4 In 0.268253(11) 0.876458(10) 0.404455(8)
O1_6 O 0.24835(12) 0.91983(11) 0.46601(10)
O2_6 O 0.30249(12) 0.97259(11) 0.44510(10)
C1_6 C 0.27767(17) 0.96901(16) 0.47204(14)
H1_5 H 0.2312 0.9826 0.5345
O9_4 O 0.31485(16) 0.91723(16) 0.35567(12)
O10_4 O 0.27547(16) 0.82437(14) 0.34003(12)
O11_4 O 0.20285(12) 0.93388(12) 0.33231(10)
O12_4 O 0.18033(12) 0.84072(12) 0.35060(10)
C27_7 C 0.01152(18) 0.90510(17) 0.16768(15)
C28_7 C 0.05002(19) 0.95307(18) 0.18387(16)
H17_7 H 0.0417 0.9899 0.1608
C29_7 C 0.10033(19) 0.94843(18) 0.23293(16)
H18_7 H 0.1259 0.9826 0.2440
C30_7 C 0.11406(18) 0.89390(17) 0.26649(14)
C31_7 C 0.16770(18) 0.88886(18) 0.31903(15)
C32_7 C 0.07655(19) 0.84468(18) 0.24991(16)
H19_7 H 0.0859 0.8069 0.2721
C33_7 C 0.02533(18) 0.84970(19) 0.20131(16)
N1_7 N 0.8012(2) 0.33441(16) 0.12471(15)
C2_7 C 0.78349(18) 0.47980(16) 0.01179(13)
C3_7 C 0.75523(19) 0.48255(17) 0.04087(14)
H1_6 H 0.7312 0.5174 0.0345
C4_7 C 0.7616(2) 0.43566(18) 0.07851(17)
H2_7 H 0.7429 0.4388 0.0988
C5_7 C 0.7958(3) 0.38316(17) 0.08713(17)
C6_7 C 0.8229(2) 0.37955(16) 0.05800(18)
H3_7 H 0.8460 0.3440 0.0636
C7_7 C 0.8169(2) 0.42814(17) 0.01971(15)
C8_7 C 0.8000(2) 0.34613(19) 0.17474(17)
C9_7 C 0.8206(2) 0.40165(18) 0.20577(17)
H5_7 H 0.8343 0.4349 0.1929
C10_7 C 0.8209(2) 0.4081(2) 0.25610(17)
H6_7 H 0.8356 0.4457 0.2781
C11_7 C 0.8004(2) 0.3611(2) 0.27431(17)
C12_7 C 0.7975(2) 0.3682(2) 0.32652(16)
C13_7 C 0.7786(3) 0.30598(19) 0.24237(18)
H7_7 H 0.7633 0.2737 0.2545
C14_7 C 0.7792(3) 0.2983(2) 0.19323(19)
H8_7 H 0.7653 0.2601 0.1719
C15_7 C 0.8219(3) 0.27372(18) 0.12147(18)
C16_7 C 0.8716(3) 0.25318(19) 0.16468(19)
H9_7 H 0.8921 0.2804 0.1963
C17_7 C 0.8932(3) 0.1941(2) 0.16395(19)
H10_7 H 0.9276 0.1807 0.1948
C18_7 C 0.8633(2) 0.15461(18) 0.11700(16)
C19_7 C 0.8132(2) 0.17634(18) 0.07264(16)
H11_7 H 0.7929 0.1503 0.0402
C20_7 C 0.7926(3) 0.23472(19) 0.07510(17)
H12_7 H 0.7581 0.2484 0.0447
C21_7 C 0.8849(2) 0.09064(16) 0.11626(15)
C22_7 C 0.9130(2) 0.05465(17) 0.16639(15)
H13_7 H 0.9163 0.0708 0.2002
C25_7 C 0.9044(2) 0.00734(18) 0.06823(16)
C26_7 C 0.8805(2) 0.06471(18) 0.06758(16)
H16_7 H 0.8604 0.0873 0.0330
O1_7 O 0.74835(12) 0.58017(11) 0.96601(10)
O2_7 O 0.80249(12) 0.52741(11) 0.94510(10)
C1_7 C 0.77767(17) 0.53099(16) 0.97204(14)
H4_7 H 0.8357 0.4252 0.9995
O13_3 O 0.77934(13) 0.71494(11) 0.94954(10)
O14_3 O 0.85354(12) 0.66070(12) 0.97021(11)
C38_7 C 0.83061(18) 0.71032(16) 0.97657(14)
O1_8 O 0.24835(12) 0.08017(11) 0.96601(10)
O2_8 O 0.30249(12) 0.02741(11) 0.94510(10)
C1_8 C 0.27767(17) 0.03099(16) 0.97204(14)
O13_4 O 0.27934(13) 0.21494(11) 0.94954(10)
O14_4 O 0.35354(12) 0.16070(12) 0.97021(11)
N1_8 N 0.3012(2) 0.83441(16) 0.12471(15)
N2_7 N 0.45896(14) 0.41329(14) 0.12049(13)
C2_8 C 0.28349(18) 0.97980(16) 0.01179(13)
C3_8 C 0.25523(19) 0.98255(17) 0.04087(14)
C4_8 C 0.2616(2) 0.93566(18) 0.07851(17)
H2_8 H 0.2429 0.9388 0.0988
C5_8 C 0.2958(3) 0.88316(17) 0.08713(17)
C6_8 C 0.3229(2) 0.87955(16) 0.05800(18)
H3_8 H 0.3460 0.8440 0.0636
C7_8 C 0.3169(2) 0.92814(17) 0.01971(15)
C8_8 C 0.3000(2) 0.84613(19) 0.17474(17)
C9_8 C 0.3206(2) 0.90165(18) 0.20577(17)
H5_8 H 0.3343 0.9349 0.1929
C10_8 C 0.3209(2) 0.9081(2) 0.25610(17)
H6_8 H 0.3356 0.9457 0.2781
C11_8 C 0.3004(2) 0.8611(2) 0.27431(17)
C12_8 C 0.2975(2) 0.8682(2) 0.32652(16)
C13_8 C 0.2786(3) 0.80598(19) 0.24237(18)
H7_8 H 0.2633 0.7737 0.2545
C14_8 C 0.2792(3) 0.7983(2) 0.19323(19)
H8_8 H 0.2653 0.7601 0.1719
C15_8 C 0.3219(3) 0.77372(18) 0.12147(18)
C16_8 C 0.3716(3) 0.75318(19) 0.16468(19)
H9_8 H 0.3921 0.7804 0.1963
C17_8 C 0.3932(3) 0.6941(2) 0.16395(19)
H10_8 H 0.4276 0.6807 0.1948
C18_8 C 0.3633(2) 0.65461(18) 0.11700(16)
C19_8 C 0.3132(2) 0.67634(18) 0.07264(16)
H11_8 H 0.2929 0.6503 0.0402
C20_8 C 0.2926(3) 0.73472(19) 0.07510(17)
H12_8 H 0.2581 0.7484 0.0447
C21_8 C 0.3849(2) 0.59064(16) 0.11626(15)
C22_8 C 0.4130(2) 0.55465(17) 0.16639(15)
H13_8 H 0.4163 0.5708 0.2002
C23_7 C 0.43543(19) 0.49653(17) 0.16674(15)
H14_7 H 0.4532 0.4722 0.2006
C24_7 C 0.43271(19) 0.47260(17) 0.11845(15)
C25_8 C 0.4044(2) 0.50734(18) 0.06823(16)
H15_7 H 0.4017 0.4914 0.0347
C26_8 C 0.3805(2) 0.56471(18) 0.06758(16)
H16_8 H 0.3604 0.5873 0.0330
C27_8 C 0.51152(18) 0.40510(17) 0.16768(15)
C28_8 C 0.55002(19) 0.45307(18) 0.18387(16)
H17_8 H 0.5417 0.4899 0.1608
C29_8 C 0.60033(19) 0.44843(18) 0.23293(16)
H18_8 H 0.6259 0.4826 0.2440
C30_8 C 0.61406(18) 0.39390(17) 0.26649(14)
C31_8 C 0.66770(18) 0.38886(18) 0.31903(15)
C32_8 C 0.57655(19) 0.34468(18) 0.24991(16)
H19_8 H 0.5859 0.3069 0.2721
C33_8 C 0.52533(18) 0.34970(19) 0.20131(16)
H20_7 H 0.4995 0.3158 0.1906
C34_7 C 0.42634(18) 0.36312(17) 0.08521(14)
C35_7 C 0.45234(19) 0.31243(19) 0.07362(16)
H21_7 H 0.4911 0.3124 0.0898
C36_7 C 0.42107(19) 0.26329(18) 0.03885(16)
H22_7 H 0.4385 0.2296 0.0308
C37_7 C 0.36519(17) 0.26235(16) 0.01567(14)
C39_7 C 0.33944(18) 0.31142(16) 0.02743(15)
H23_7 H 0.3007 0.3110 0.0116
C40_7 C 0.37069(18) 0.36074(17) 0.06234(14)
H24_7 H 0.3530 0.3939 0.0707
H4_8 H 0.3357 0.9252 0.9995
C38_8 C 0.33061(18) 0.21032(16) 0.97657(14)
H1_7 H 0.7688 0.9826 0.9655
N2_8 N 0.95896(14) 0.91329(14) 0.12049(13)
C23_8 C 0.93543(19) 0.99653(17) 0.16674(15)
H14_8 H 0.9532 0.9722 0.2006
C24_8 C 0.93271(19) 0.97260(17) 0.11845(15)
H15_8 H 0.9017 0.9914 0.0347
H20_8 H 0.9995 0.8158 0.1906
C34_8 C 0.92634(18) 0.86312(17) 0.08521(14)
C35_8 C 0.95234(19) 0.81243(19) 0.07362(16)
H21_8 H 0.9911 0.8124 0.0898
C36_8 C 0.92107(19) 0.76329(18) 0.03885(16)
H22_8 H 0.9385 0.7296 0.0308
C37_8 C 0.86519(17) 0.76235(16) 0.01567(14)
C39_8 C 0.83944(18) 0.81142(16) 0.02743(15)
H23_8 H 0.8007 0.8110 0.0116
C40_8 C 0.87069(18) 0.86074(17) 0.06234(14)
H24_8 H 0.8530 0.8939 0.0707
H1_8 H 0.2312 0.0174 0.0345
loop_
_geom_bond_atom_site_label_1
_geom_bond_atom_site_label_2
_geom_bond_site_symmetry_1
_geom_bond_site_symmetry_2
O7 C38 1_555 1_555
O8 C38 1_555 1_555
In2 O7 1_555 1_555
O8 In2 1_555 1_555
In2 O1 1_555 1_555
O1 C1 1_555 1_555
O2 In2 1_555 1_555
C1 O2 1_555 1_555
O9 In2 1_555 1_555
O10 In2 1_555 1_555
O11 In2 1_555 1_555
O12 In2 1_555 1_555
O3 C12 1_555 1_555
O4 C12 1_555 1_555
N1 C5 1_555 1_555
C3 C2 1_555 1_555
H1 C3 1_555 1_555
C4 C3 1_555 1_555
H2 C4 1_555 1_555
C5 C4 1_555 1_555
C6 C5 1_555 1_555
H3 C6 1_555 1_555
C7 C2 1_555 1_555
C8 N1 1_555 1_555
C9 C8 1_555 1_555
H5 C9 1_555 1_555
C10 C9 1_555 1_555
H6 C10 1_555 1_555
C11 C10 1_555 1_555
C12 C11 1_555 1_555
C13 C11 1_555 1_555
H7 C13 1_555 1_555
C14 C8 1_555 1_555
H8 C14 1_555 1_555
C15 N1 1_555 1_555
C16 C15 1_555 1_555
H9 C16 1_555 1_555
C17 C16 1_555 1_555
H10 C17 1_555 1_555
C18 C17 1_555 1_555
C19 C18 1_555 1_555
H11 C19 1_555 1_555
C20 C15 1_555 1_555
H12 C20 1_555 1_555
C21 C18 1_555 1_555
C22 C21 1_555 1_555
H13 C22 1_555 1_555
C26 C21 1_555 1_555
H16 C26 1_555 1_555
In3 O3 1_555 1_555
O4 In3 1_555 1_555
C6 C7 1_555 1_555
C13 C14 1_555 1_555
C19 C20 1_555 1_555
C25 C26 1_555 1_555
O5 C31 1_555 1_555
O6 C31 1_555 1_555
C28 C27 1_555 1_555
H17 C28 1_555 1_555
C29 C28 1_555 1_555
H18 C29 1_555 1_555
C30 C29 1_555 1_555
C31 C30 1_555 1_555
C32 C30 1_555 1_555
H19 C32 1_555 1_555
C33 C27 1_555 1_555
In4 O5 1_555 1_555
O6 In4 1_555 1_555
C32 C33 1_555 1_555
O7_2 C38_2 1_555 1_555
O8_2 C38_2 1_555 1_555
In2_2 O7_2 1_555 1_555
O8_2 In2_2 1_555 1_555
O3_2 C12_2 1_555 1_555
O4_2 C12_2 1_555 1_555
O5_2 C31_2 1_555 1_555
O6_2 C31_2 1_555 1_555
N1_2 C5_2 1_555 1_555
N2 C24 1_555 1_555
C3_2 C2_2 1_555 1_555
C4_2 C3_2 1_555 1_555
H2_2 C4_2 1_555 1_555
C5_2 C4_2 1_555 1_555
C6_2 C5_2 1_555 1_555
H3_2 C6_2 1_555 1_555
C7_2 C2_2 1_555 1_555
C8_2 N1_2 1_555 1_555
C9_2 C8_2 1_555 1_555
H5_2 C9_2 1_555 1_555
C10_2 C9_2 1_555 1_555
H6_2 C10_2 1_555 1_555
C11_2 C10_2 1_555 1_555
C12_2 C11_2 1_555 1_555
C13_2 C11_2 1_555 1_555
H7_2 C13_2 1_555 1_555
C14_2 C8_2 1_555 1_555
H8_2 C14_2 1_555 1_555
C15_2 N1_2 1_555 1_555
C16_2 C15_2 1_555 1_555
H9_2 C16_2 1_555 1_555
C17_2 C16_2 1_555 1_555
H10_2 C17_2 1_555 1_555
C18_2 C17_2 1_555 1_555
C19_2 C18_2 1_555 1_555
H11_2 C19_2 1_555 1_555
C20_2 C15_2 1_555 1_555
H12_2 C20_2 1_555 1_555
C21_2 C18_2 1_555 1_555
C22_2 C21_2 1_555 1_555
H13_2 C22_2 1_555 1_555
C23 C22_2 1_555 1_555
H14 C23 1_555 1_555
C24 C23 1_555 1_555
C25_2 C24 1_555 1_555
H15 C25_2 1_555 1_555
C26_2 C21_2 1_555 1_555
H16_2 C26_2 1_555 1_555
C27_2 N2 1_555 1_555
C28_2 C27_2 1_555 1_555
H17_2 C28_2 1_555 1_555
C29_2 C28_2 1_555 1_555
H18_2 C29_2 1_555 1_555
C30_2 C29_2 1_555 1_555
C31_2 C30_2 1_555 1_555
C32_2 C30_2 1_555 1_555
H19_2 C32_2 1_555 1_555
C33_2 C27_2 1_555 1_555
H20 C33_2 1_555 1_555
C34 N2 1_555 1_555
C35 C34 1_555 1_555
H21 C35 1_555 1_555
C36 C35 1_555 1_555
H22 C36 1_555 1_555
C37 C36 1_555 1_555
C39 C37 1_555 1_555
H23 C39 1_555 1_555
C40 C34 1_555 1_555
H24 C40 1_555 1_555
In4 O3_2 1_555 1_555
In3 O5_2 1_555 1_555
O4_2 In4 1_555 1_555
O6_2 In3 1_555 1_555
C6_2 C7_2 1_555 1_555
C13_2 C14_2 1_555 1_555
C19_2 C20_2 1_555 1_555
C25_2 C26_2 1_555 1_555
C32_2 C33_2 1_555 1_555
C39 C40 1_555 1_555
In2_2 O1_2 1_555 1_555
O1_2 C1_2 1_555 1_555
O2_2 In2_2 1_555 1_555
C1_2 O2_2 1_555 1_555
O9_2 In2_2 1_555 1_555
O10_2 In2_2 1_555 1_555
O11_2 In2_2 1_555 1_555
O12_2 In2_2 1_555 1_555
In3 O1_3 1_555 1_555
O1_3 C1_3 1_555 1_555
O2_3 In3 1_555 1_555
O9 C12_3 1_555 1_555
O10 C12_3 1_555 1_555
N1_3 C5_3 1_555 1_555
C1_3 O2_3 1_555 1_555
C2_3 C1_3 1_555 1_555
C3_3 C2_3 1_555 1_555
H1_2 C3_3 1_555 1_555
C4_3 C3_3 1_555 1_555
H2_3 C4_3 1_555 1_555
C5_3 C4_3 1_555 1_555
C6_3 C5_3 1_555 1_555
H3_3 C6_3 1_555 1_555
C7_3 C2_3 1_555 1_555
H4_3 C7_3 1_555 1_555
C8_3 N1_3 1_555 1_555
C9_3 C8_3 1_555 1_555
H5_3 C9_3 1_555 1_555
C10_3 C9_3 1_555 1_555
H6_3 C10_3 1_555 1_555
C11_3 C10_3 1_555 1_555
C12_3 C11_3 1_555 1_555
C13_3 C11_3 1_555 1_555
H7_3 C13_3 1_555 1_555
C14_3 C8_3 1_555 1_555
H8_3 C14_3 1_555 1_555
C15_3 N1_3 1_555 1_555
C16_3 C15_3 1_555 1_555
H9_3 C16_3 1_555 1_555
C17_3 C16_3 1_555 1_555
H10_3 C17_3 1_555 1_555
C18_3 C17_3 1_555 1_555
C19_3 C18_3 1_555 1_555
H11_3 C19_3 1_555 1_555
C20_3 C15_3 1_555 1_555
H12_3 C20_3 1_555 1_555
C21_3 C18_3 1_555 1_555
C22_3 C21_3 1_555 1_555
H13_3 C22_3 1_555 1_555
C26_3 C21_3 1_555 1_555
H16_3 C26_3 1_555 1_555
O13 In3 1_555 1_555
O14 In3 1_555 1_555
C6_3 C7_3 1_555 1_555
C13_3 C14_3 1_555 1_555
C19_3 C20_3 1_555 1_555
C25_3 C26_3 1_555 1_555
O13 C38_3 1_555 1_555
O14 C38_3 1_555 1_555
N2_2 C24_2 1_555 1_555
H14_2 C23_2 1_555 1_555
C24_2 C23_2 1_555 1_555
C34_2 N2_2 1_555 1_555
C35_2 C34_2 1_555 1_555
H21_2 C35_2 1_555 1_555
C36_2 C35_2 1_555 1_555
H22_2 C36_2 1_555 1_555
C37_2 C36_2 1_555 1_555
C38_3 C37_2 1_555 1_555
C39_2 C37_2 1_555 1_555
H23_2 C39_2 1_555 1_555
C40_2 C34_2 1_555 1_555
H24_2 C40_2 1_555 1_555
C39_2 C40_2 1_555 1_555
O11_2 C31_3 1_555 1_555
O12_2 C31_3 1_555 1_555
C28_3 C27_3 1_555 1_555
H17_3 C28_3 1_555 1_555
C29_3 C28_3 1_555 1_555
H18_3 C29_3 1_555 1_555
C30_3 C29_3 1_555 1_555
C31_3 C30_3 1_555 1_555
C32_3 C30_3 1_555 1_555
H19_3 C32_3 1_555 1_555
C33_3 C27_3 1_555 1_555
C32_3 C33_3 1_555 1_555
In4 O1_4 1_555 1_555
O1_4 C1_4 1_555 1_555
O2_4 In4 1_555 1_555
C1_4 O2_4 1_555 1_555
O13_2 In4 1_555 1_555
O14_2 In4 1_555 1_555
O9_2 C12_4 1_555 1_555
O10_2 C12_4 1_555 1_555
O11 C31_4 1_555 1_555
O12 C31_4 1_555 1_555
O13_2 C38_4 1_555 1_555
O14_2 C38_4 1_555 1_555
N1_4 C5_4 1_555 1_555
N2_3 C24_3 1_555 1_555
C3_4 C2_4 1_555 1_555
C4_4 C3_4 1_555 1_555
H2_4 C4_4 1_555 1_555
C5_4 C4_4 1_555 1_555
C6_4 C5_4 1_555 1_555
H3_4 C6_4 1_555 1_555
C7_4 C2_4 1_555 1_555
H4_4 C7_4 1_555 1_555
C8_4 N1_4 1_555 1_555
C9_4 C8_4 1_555 1_555
H5_4 C9_4 1_555 1_555
C10_4 C9_4 1_555 1_555
H6_4 C10_4 1_555 1_555
C11_4 C10_4 1_555 1_555
C12_4 C11_4 1_555 1_555
C13_4 C11_4 1_555 1_555
H7_4 C13_4 1_555 1_555
C14_4 C8_4 1_555 1_555
H8_4 C14_4 1_555 1_555
C15_4 N1_4 1_555 1_555
C16_4 C15_4 1_555 1_555
H9_4 C16_4 1_555 1_555
C17_4 C16_4 1_555 1_555
H10_4 C17_4 1_555 1_555
C18_4 C17_4 1_555 1_555
C19_4 C18_4 1_555 1_555
H11_4 C19_4 1_555 1_555
C20_4 C15_4 1_555 1_555
H12_4 C20_4 1_555 1_555
C21_4 C18_4 1_555 1_555
C22_4 C21_4 1_555 1_555
H13_4 C22_4 1_555 1_555
C23_3 C22_4 1_555 1_555
H14_3 C23_3 1_555 1_555
C24_3 C23_3 1_555 1_555
C25_4 C24_3 1_555 1_555
H15_3 C25_4 1_555 1_555
C26_4 C21_4 1_555 1_555
H16_4 C26_4 1_555 1_555
C27_4 N2_3 1_555 1_555
C28_4 C27_4 1_555 1_555
H17_4 C28_4 1_555 1_555
C29_4 C28_4 1_555 1_555
H18_4 C29_4 1_555 1_555
C30_4 C29_4 1_555 1_555
C31_4 C30_4 1_555 1_555
C32_4 C30_4 1_555 1_555
H19_4 C32_4 1_555 1_555
C33_4 C27_4 1_555 1_555
H20_3 C33_4 1_555 1_555
C34_3 N2_3 1_555 1_555
C35_3 C34_3 1_555 1_555
H21_3 C35_3 1_555 1_555
C36_3 C35_3 1_555 1_555
H22_3 C36_3 1_555 1_555
C37_3 C36_3 1_555 1_555
C38_4 C37_3 1_555 1_555
C39_3 C37_3 1_555 1_555
H23_3 C39_3 1_555 1_555
C40_3 C34_3 1_555 1_555
H24_3 C40_3 1_555 1_555
C6_4 C7_4 1_555 1_555
C13_4 C14_4 1_555 1_555
C19_4 C20_4 1_555 1_555
C25_4 C26_4 1_555 1_555
C32_4 C33_4 1_555 1_555
C39_3 C40_3 1_555 1_555
N2_4 C24_4 1_555 1_555
H14_4 C23_4 1_555 1_555
C24_4 C23_4 1_555 1_555
C34_4 N2_4 1_555 1_555
C35_4 C34_4 1_555 1_555
H21_4 C35_4 1_555 1_555
C36_4 C35_4 1_555 1_555
H22_4 C36_4 1_555 1_555
C37_4 C36_4 1_555 1_555
C39_4 C37_4 1_555 1_555
H23_4 C39_4 1_555 1_555
C40_4 C34_4 1_555 1_555
H24_4 C40_4 1_555 1_555
C39_4 C40_4 1_555 1_555
O5_3 C31_5 1_555 1_555
O6_3 C31_5 1_555 1_555
C28_5 C27_5 1_555 1_555
H17_5 C28_5 1_555 1_555
C29_5 C28_5 1_555 1_555
H18_5 C29_5 1_555 1_555
C30_5 C29_5 1_555 1_555
C31_5 C30_5 1_555 1_555
C32_5 C30_5 1_555 1_555
H19_5 C32_5 1_555 1_555
C33_5 C27_5 1_555 1_555
In4_2 O5_3 1_555 1_555
O6_3 In4_2 1_555 1_555
C32_5 C33_5 1_555 1_555
O7_3 C38_5 1_555 1_555
O8_3 C38_5 1_555 1_555
N2_5 C24_5 1_555 1_555
H14_5 C23_5 1_555 1_555
C24_5 C23_5 1_555 1_555
C34_5 N2_5 1_555 1_555
C35_5 C34_5 1_555 1_555
H21_5 C35_5 1_555 1_555
C36_5 C35_5 1_555 1_555
H22_5 C36_5 1_555 1_555
C37_5 C36_5 1_555 1_555
C38_5 C37_5 1_555 1_555
C39_5 C37_5 1_555 1_555
H23_5 C39_5 1_555 1_555
C40_5 C34_5 1_555 1_555
H24_5 C40_5 1_555 1_555
In2_3 O7_3 1_555 1_555
O8_3 In2_3 1_555 1_555
C39_5 C40_5 1_555 1_555
In2_3 O1_5 1_555 1_555
O1_5 C1_5 1_555 1_555
O2_5 In2_3 1_555 1_555
O3_3 C12_5 1_555 1_555
O4_3 C12_5 1_555 1_555
N1_5 C5_5 1_555 1_555
C1_5 O2_5 1_555 1_555
C2_5 C1_5 1_555 1_555
C3_5 C2_5 1_555 1_555
H1_4 C3_5 1_555 1_555
C4_5 C3_5 1_555 1_555
H2_5 C4_5 1_555 1_555
C5_5 C4_5 1_555 1_555
C6_5 C5_5 1_555 1_555
H3_5 C6_5 1_555 1_555
C7_5 C2_5 1_555 1_555
H4_5 C7_5 1_555 1_555
C8_5 N1_5 1_555 1_555
C9_5 C8_5 1_555 1_555
H5_5 C9_5 1_555 1_555
C10_5 C9_5 1_555 1_555
H6_5 C10_5 1_555 1_555
C11_5 C10_5 1_555 1_555
C12_5 C11_5 1_555 1_555
C13_5 C11_5 1_555 1_555
H7_5 C13_5 1_555 1_555
C14_5 C8_5 1_555 1_555
H8_5 C14_5 1_555 1_555
C15_5 N1_5 1_555 1_555
C16_5 C15_5 1_555 1_555
H9_5 C16_5 1_555 1_555
C17_5 C16_5 1_555 1_555
H10_5 C17_5 1_555 1_555
C18_5 C17_5 1_555 1_555
C19_5 C18_5 1_555 1_555
H11_5 C19_5 1_555 1_555
C20_5 C15_5 1_555 1_555
H12_5 C20_5 1_555 1_555
C21_5 C18_5 1_555 1_555
C22_5 C21_5 1_555 1_555
H13_5 C22_5 1_555 1_555
C26_5 C21_5 1_555 1_555
H16_5 C26_5 1_555 1_555
In3_2 O3_3 1_555 1_555
O9_3 In2_3 1_555 1_555
O10_3 In2_3 1_555 1_555
O11_3 In2_3 1_555 1_555
O12_3 In2_3 1_555 1_555
O4_3 In3_2 1_555 1_555
C6_5 C7_5 1_555 1_555
C13_5 C14_5 1_555 1_555
C19_5 C20_5 1_555 1_555
C25_5 C26_5 1_555 1_555
O3_4 C12_6 1_555 1_555
O4_4 C12_6 1_555 1_555
O5_4 C31_6 1_555 1_555
O6_4 C31_6 1_555 1_555
O7_4 C38_6 1_555 1_555
O8_4 C38_6 1_555 1_555
N1_6 C5_6 1_555 1_555
N2_6 C24_6 1_555 1_555
C3_6 C2_6 1_555 1_555
C4_6 C3_6 1_555 1_555
H2_6 C4_6 1_555 1_555
C5_6 C4_6 1_555 1_555
C6_6 C5_6 1_555 1_555
H3_6 C6_6 1_555 1_555
C7_6 C2_6 1_555 1_555
H4_6 C7_6 1_555 1_555
C8_6 N1_6 1_555 1_555
C9_6 C8_6 1_555 1_555
H5_6 C9_6 1_555 1_555
C10_6 C9_6 1_555 1_555
H6_6 C10_6 1_555 1_555
C11_6 C10_6 1_555 1_555
C12_6 C11_6 1_555 1_555
C13_6 C11_6 1_555 1_555
H7_6 C13_6 1_555 1_555
C14_6 C8_6 1_555 1_555
H8_6 C14_6 1_555 1_555
C15_6 N1_6 1_555 1_555
C16_6 C15_6 1_555 1_555
H9_6 C16_6 1_555 1_555
C17_6 C16_6 1_555 1_555
H10_6 C17_6 1_555 1_555
C18_6 C17_6 1_555 1_555
C19_6 C18_6 1_555 1_555
H11_6 C19_6 1_555 1_555
C20_6 C15_6 1_555 1_555
H12_6 C20_6 1_555 1_555
C21_6 C18_6 1_555 1_555
C22_6 C21_6 1_555 1_555
H13_6 C22_6 1_555 1_555
C23_6 C22_6 1_555 1_555
H14_6 C23_6 1_555 1_555
C24_6 C23_6 1_555 1_555
C25_6 C24_6 1_555 1_555
H15_6 C25_6 1_555 1_555
C26_6 C21_6 1_555 1_555
H16_6 C26_6 1_555 1_555
C27_6 N2_6 1_555 1_555
C28_6 C27_6 1_555 1_555
H17_6 C28_6 1_555 1_555
C29_6 C28_6 1_555 1_555
H18_6 C29_6 1_555 1_555
C30_6 C29_6 1_555 1_555
C31_6 C30_6 1_555 1_555
C32_6 C30_6 1_555 1_555
H19_6 C32_6 1_555 1_555
C33_6 C27_6 1_555 1_555
H20_6 C33_6 1_555 1_555
C34_6 N2_6 1_555 1_555
C35_6 C34_6 1_555 1_555
H21_6 C35_6 1_555 1_555
C36_6 C35_6 1_555 1_555
H22_6 C36_6 1_555 1_555
C37_6 C36_6 1_555 1_555
C38_6 C37_6 1_555 1_555
C39_6 C37_6 1_555 1_555
H23_6 C39_6 1_555 1_555
C40_6 C34_6 1_555 1_555
H24_6 C40_6 1_555 1_555
In2_4 O7_4 1_555 1_555
In4_2 O3_4 1_555 1_555
In3_2 O5_4 1_555 1_555
O4_4 In4_2 1_555 1_555
O6_4 In3_2 1_555 1_555
O8_4 In2_4 1_555 1_555
C6_6 C7_6 1_555 1_555
C13_6 C14_6 1_555 1_555
C19_6 C20_6 1_555 1_555
C25_6 C26_6 1_555 1_555
C32_6 C33_6 1_555 1_555
C39_6 C40_6 1_555 1_555
In2_4 O1_6 1_555 1_555
O1_6 C1_6 1_555 1_555
O2_6 In2_4 1_555 1_555
C1_6 O2_6 1_555 1_555
O9_4 In2_4 1_555 1_555
O10_4 In2_4 1_555 1_555
O11_4 In2_4 1_555 1_555
O12_4 In2_4 1_555 1_555
O11_4 C31_7 1_555 1_555
O12_4 C31_7 1_555 1_555
C28_7 C27_7 1_555 1_555
H17_7 C28_7 1_555 1_555
C29_7 C28_7 1_555 1_555
H18_7 C29_7 1_555 1_555
C30_7 C29_7 1_555 1_555
C31_7 C30_7 1_555 1_555
C32_7 C30_7 1_555 1_555
H19_7 C32_7 1_555 1_555
C33_7 C27_7 1_555 1_555
C32_7 C33_7 1_555 1_555
O9_3 C12_7 1_555 1_555
O10_3 C12_7 1_555 1_555
N1_7 C5_7 1_555 1_555
C3_7 C2_7 1_555 1_555
H1_6 C3_7 1_555 1_555
C4_7 C3_7 1_555 1_555
H2_7 C4_7 1_555 1_555
C5_7 C4_7 1_555 1_555
C6_7 C5_7 1_555 1_555
H3_7 C6_7 1_555 1_555
C7_7 C2_7 1_555 1_555
C8_7 N1_7 1_555 1_555
C9_7 C8_7 1_555 1_555
H5_7 C9_7 1_555 1_555
C10_7 C9_7 1_555 1_555
H6_7 C10_7 1_555 1_555
C11_7 C10_7 1_555 1_555
C12_7 C11_7 1_555 1_555
C13_7 C11_7 1_555 1_555
H7_7 C13_7 1_555 1_555
C14_7 C8_7 1_555 1_555
H8_7 C14_7 1_555 1_555
C15_7 N1_7 1_555 1_555
C16_7 C15_7 1_555 1_555
H9_7 C16_7 1_555 1_555
C17_7 C16_7 1_555 1_555
H10_7 C17_7 1_555 1_555
C18_7 C17_7 1_555 1_555
C19_7 C18_7 1_555 1_555
H11_7 C19_7 1_555 1_555
C20_7 C15_7 1_555 1_555
H12_7 C20_7 1_555 1_555
C21_7 C18_7 1_555 1_555
C22_7 C21_7 1_555 1_555
H13_7 C22_7 1_555 1_555
C26_7 C21_7 1_555 1_555
H16_7 C26_7 1_555 1_555
C6_7 C7_7 1_555 1_555
C13_7 C14_7 1_555 1_555
C19_7 C20_7 1_555 1_555
C25_7 C26_7 1_555 1_555
In3_2 O1_7 1_555 1_555
O1_7 C1_7 1_555 1_555
O2_7 In3_2 1_555 1_555
C1_7 O2_7 1_555 1_555
O13_3 In3_2 1_555 1_555
O14_3 In3_2 1_555 1_555
O13_3 C38_7 1_555 1_555
O14_3 C38_7 1_555 1_555
In4_2 O1_8 1_555 1_555
O1_8 C1_8 1_555 1_555
O2_8 In4_2 1_555 1_555
C1_8 O2_8 1_555 1_555
O13_4 In4_2 1_555 1_555
O14_4 In4_2 1_555 1_555
O9_4 C12_8 1_555 1_555
O10_4 C12_8 1_555 1_555
O11_3 C31_8 1_555 1_555
O12_3 C31_8 1_555 1_555
N1_8 C5_8 1_555 1_555
N2_7 C24_7 1_555 1_555
C3_8 C2_8 1_555 1_555
C4_8 C3_8 1_555 1_555
H2_8 C4_8 1_555 1_555
C5_8 C4_8 1_555 1_555
C6_8 C5_8 1_555 1_555
H3_8 C6_8 1_555 1_555
C7_8 C2_8 1_555 1_555
C8_8 N1_8 1_555 1_555
C9_8 C8_8 1_555 1_555
H5_8 C9_8 1_555 1_555
C10_8 C9_8 1_555 1_555
H6_8 C10_8 1_555 1_555
C11_8 C10_8 1_555 1_555
C12_8 C11_8 1_555 1_555
C13_8 C11_8 1_555 1_555
H7_8 C13_8 1_555 1_555
C14_8 C8_8 1_555 1_555
H8_8 C14_8 1_555 1_555
C15_8 N1_8 1_555 1_555
C16_8 C15_8 1_555 1_555
H9_8 C16_8 1_555 1_555
C17_8 C16_8 1_555 1_555
H10_8 C17_8 1_555 1_555
C18_8 C17_8 1_555 1_555
C19_8 C18_8 1_555 1_555
H11_8 C19_8 1_555 1_555
C20_8 C15_8 1_555 1_555
H12_8 C20_8 1_555 1_555
C21_8 C18_8 1_555 1_555
C22_8 C21_8 1_555 1_555
H13_8 C22_8 1_555 1_555
C23_7 C22_8 1_555 1_555
H14_7 C23_7 1_555 1_555
C24_7 C23_7 1_555 1_555
C25_8 C24_7 1_555 1_555
H15_7 C25_8 1_555 1_555
C26_8 C21_8 1_555 1_555
H16_8 C26_8 1_555 1_555
C27_8 N2_7 1_555 1_555
C28_8 C27_8 1_555 1_555
H17_8 C28_8 1_555 1_555
C29_8 C28_8 1_555 1_555
H18_8 C29_8 1_555 1_555
C30_8 C29_8 1_555 1_555
C31_8 C30_8 1_555 1_555
C32_8 C30_8 1_555 1_555
H19_8 C32_8 1_555 1_555
C33_8 C27_8 1_555 1_555
H20_7 C33_8 1_555 1_555
C34_7 N2_7 1_555 1_555
C35_7 C34_7 1_555 1_555
H21_7 C35_7 1_555 1_555
C36_7 C35_7 1_555 1_555
H22_7 C36_7 1_555 1_555
C37_7 C36_7 1_555 1_555
C39_7 C37_7 1_555 1_555
H23_7 C39_7 1_555 1_555
C40_7 C34_7 1_555 1_555
H24_7 C40_7 1_555 1_555
C6_8 C7_8 1_555 1_555
C13_8 C14_8 1_555 1_555
C19_8 C20_8 1_555 1_555
C25_8 C26_8 1_555 1_555
C32_8 C33_8 1_555 1_555
C39_7 C40_7 1_555 1_555
O13_4 C38_8 1_555 1_555
O14_4 C38_8 1_555 1_555
N2_8 C24_8 1_555 1_555
H14_8 C23_8 1_555 1_555
C24_8 C23_8 1_555 1_555
C34_8 N2_8 1_555 1_555
C35_8 C34_8 1_555 1_555
H21_8 C35_8 1_555 1_555
C36_8 C35_8 1_555 1_555
H22_8 C36_8 1_555 1_555
C37_8 C36_8 1_555 1_555
C39_8 C37_8 1_555 1_555
H23_8 C39_8 1_555 1_555
C40_8 C34_8 1_555 1_555
H24_8 C40_8 1_555 1_555
C39_8 C40_8 1_555 1_555

#END
