
###############################################################################
#
# This file contains modified crystal structure data generated from the
# MOF subset of the Cambridge Structural Database (CSD) v543 
# hosted by the Cambridge Crystallographic Data Centre (CCDC).
#
# This work is licensed under the Creative Commons
# Attribution-NonCommercial-ShareAlike 4.0 International License.
# To view a copy of this license, visit
# http://creativecommons.org/licenses/by-nc-sa/4.0/
# or send a letter to
# Creative Commons, PO Box 1866, Mountain View, CA 94042, USA.
#
# CIF created using the CSD Python API on 29 September 2022
# The structure has been converted into the P1 space group
# The structure has a 3D framework
# The original CSD entry ZUYLOW is in the rhombohedral crystal system
# The framework has been calculated to contain at least 10.0% void space
# The void calculation uses a probe of radius 1.32A, grid spacing 0.4
#
###############################################################################

data_ZUYLOW
_chemical_formula_moiety         '(C252 H288 Cu72 I72 N144)n'
_symmetry_cell_setting           triclinic
_symmetry_space_group_name_H-M   'P 1'
_symmetry_Int_Tables_number      1
_space_group_name_Hall           'P 1'
loop_
_symmetry_equiv_pos_site_id
_symmetry_equiv_pos_as_xyz
1 x,y,z
_cell_length_a                   32.5235(17)
_cell_length_b                   32.5235(17)
_cell_length_c                   16.9324(11)
_cell_angle_alpha                90
_cell_angle_beta                 90
_cell_angle_gamma                120
_cell_volume                     15511.1
loop_
_atom_site_label
_atom_site_type_symbol
_atom_site_fract_x
_atom_site_fract_y
_atom_site_fract_z
I2 I 0.62133(19) 0.07126(19) 0.0300(3)
I3 I 0.5061(2) 0.0435(2) 0.1984(2)
Cu2 Cu 0.5751(3) 0.0244(4) 0.1611(6)
Cu3 Cu 0.5274(4) 0.0411(4) 0.0492(5)
H3 H 0.4655 0.1958 0.0385
H12 H 0.5417 0.1412 0.0410
N9 N 0.6240(25) 0.0417(14) 0.2518(17)
N3 N 0.9157(14) 0.4403(18) 0.9836(17)
N5 N 0.8499(15) 0.3752(20) 0.934(2)
N6 N 0.8172(16) 0.2419(19) 0.872(2)
H2 H 0.9907 0.5921 0.8645
N8 N 0.7994(21) 0.2871(25) 0.925(2)
C3 C 0.8065(21) 0.2644(26) 0.984(3)
C4 C 0.8816(14) 0.3926(18) 0.873(2)
H4 H 0.8790 0.3815 0.8205
H8 H 0.9837 0.6565 0.7574
C8 C 0.8008(13) 0.3306(21) 0.936(3)
H9 H 0.7857 0.3296 0.9869
H10 H 0.7812 0.3336 0.8937
C9 C 0.8070(21) 0.2734(25) 0.846(3)
H11 H 0.8052 0.2839 0.7946
C10 C 0.8739(13) 0.4053(16) 0.9910(19)
C11 C 0.9153(18) 0.4278(23) 0.907(2)
H13 H 0.9427 0.4472 0.8757
C14 C 0.8175(23) 0.2336(29) 0.956(2)
H16 H 0.8238 0.2117 0.9823
Cu6 Cu 0.8049(4) 0.1799(5) 0.7984(6)
N2 N 0.7510(21) 0.0426(25) 0.9184(17)
C13 C 0.7311(21) 0.0505(26) 0.980(2)
H15 H 0.7311 0.0781 0.9992
Cu5 Cu 0.7826(5) 0.0916(6) 0.8278(6)
I1 I 0.71128(25) 0.11647(17) 0.8164(3)
I2_2 I 0.78326(27) 0.04534(19) 0.6967(3)
I3_2 I 0.8707(3) 0.1606(2) 0.8651(2)
I4 I 0.82774(28) 0.20458(19) 0.6480(3)
Cu1 Cu 0.7563(6) 0.1135(4) 0.6888(6)
Cu3_2 Cu 0.8470(6) 0.1393(4) 0.7159(5)
N1 N 0.7135(21) 0.0891(15) 0.606(2)
N3_2 N 0.8930(18) 0.1421(12) 0.6503(17)
N4 N 0.6783(18) 0.0477(13) 0.487(2)
N5_2 N 0.9581(20) 0.1414(13) 0.601(2)
C1 C 0.6674(21) 0.0814(15) 0.588(2)
H1 H 0.6520 0.0921 0.6234
C2 C 0.7136(21) 0.0675(16) 0.542(2)
H2_2 H 0.7412 0.0653 0.5312
N7 N 0.6646(27) 0.0404(16) 0.346(2)
C4_2 C 0.9407(18) 0.1557(12) 0.540(2)
H4_2 H 0.9518 0.1642 0.4872
C5 C 0.6466(21) 0.0591(15) 0.522(2)
H5 H 0.6164 0.0523 0.5025
C6 C 0.6971(29) 0.0815(17) 0.299(3)
H6 H 0.7297 0.1035 0.3089
C7 C 0.6588(22) 0.0111(18) 0.427(4)
H10_2 H 0.9997 0.1143 0.5604
C10_2 C 0.9280(16) 0.1353(10) 0.6577(19)
H12_2 H 0.9328 0.1250 0.7077
C11_2 C 0.9055(23) 0.1542(15) 0.574(2)
H13_2 H 0.8861 0.1622 0.5424
C12 C 0.6716(29) 0.0814(17) 0.240(3)
H14 H 0.6820 0.1033 0.1976
C13_2 C 0.6161(26) 0.0139(16) 0.314(2)
N3_3 N 0.5246(12) 0.0843(14) 0.9836(17)
N5_3 N 0.5253(13) 0.1501(15) 0.934(2)
N6_2 N 0.4247(11) 0.1828(16) 0.872(2)
H2_3 H 0.6014 0.0093 0.8645
N8_2 N 0.4877(14) 0.2006(21) 0.925(2)
C3_2 C 0.4579(16) 0.1935(21) 0.984(3)
C4_3 C 0.5110(12) 0.1184(14) 0.873(2)
H4_3 H 0.5025 0.1210 0.8205
H8_2 H 0.6728 0.0163 0.7574
C8_2 C 0.5298(17) 0.1992(13) 0.936(3)
H9_2 H 0.5439 0.2143 0.9869
H10_3 H 0.5524 0.2188 0.8937
C9_2 C 0.4664(14) 0.1930(21) 0.846(3)
H11_2 H 0.4787 0.1948 0.7946
C10_3 C 0.5314(10) 0.1261(13) 0.9910(19)
C11_3 C 0.5125(15) 0.0847(18) 0.907(2)
H13_3 H 0.5045 0.0573 0.8757
C14_2 C 0.4161(17) 0.1825(23) 0.956(2)
H16_2 H 0.3879 0.1762 0.9823
Cu6_2 Cu 0.3749(3) 0.1951(4) 0.7984(6)
I4_2 I 0.46209(19) 0.9565(2) 0.9813(3)
N1_2 N 0.5776(15) 0.9578(14) 0.939(2)
N2_2 N 0.6250(14) 0.9157(21) 0.5851(17)
N4_2 N 0.6190(13) 0.9640(13) 0.820(2)
C1_2 C 0.5853(15) 0.9194(14) 0.921(2)
H1_2 H 0.5746 0.8933 0.9567
C2_2 C 0.5992(16) 0.9795(13) 0.875(2)
N7_2 N 0.6263(16) 0.9576(22) 0.679(2)
C5_2 C 0.6076(15) 0.9209(15) 0.855(2)
H5_2 H 0.6144 0.8975 0.8358
C6_2 C 0.5852(17) 0.9490(24) 0.632(3)
H6_2 H 0.5632 0.9596 0.6422
C7_2 C 0.6556(18) 0.9811(12) 0.760(4)
H7 H 0.6787 0.9704 0.7709
C12_2 C 0.5853(17) 0.9236(23) 0.573(3)
H14_2 H 0.5634 0.9121 0.5309
C13_3 C 0.6528(16) 0.9356(21) 0.647(2)
H15_2 H 0.6804 0.9356 0.6659
Cu5_2 Cu 0.6423(4) 0.8840(5) 0.4944(6)
I1_2 I 0.07185(18) 0.62205(25) 0.1497(3)
Cu1_2 Cu 0.0238(4) 0.5770(6) 0.0221(6)
Cu4 Cu 0.0416(3) 0.5284(4) 0.1317(6)
N10 N 0.0914(11) 0.5161(22) 0.205(2)
I2_3 I 0.92874(19) 0.55007(27) 0.0300(3)
I3_3 I 0.9565(2) 0.4626(3) 0.1984(2)
Cu2_2 Cu 0.9756(4) 0.5507(5) 0.1611(6)
Cu3_3 Cu 0.9589(4) 0.4863(6) 0.0492(5)
H3_2 H 0.8042 0.2697 0.0385
H12_3 H 0.8588 0.4005 0.0410
N9_2 N 0.9583(14) 0.5824(29) 0.2518(17)
I1_3 I 0.37795(25) 0.44980(17) 0.1497(3)
I2_4 I 0.44993(27) 0.37867(19) 0.0300(3)
I3_4 I 0.5374(3) 0.4939(2) 0.1984(2)
Cu1_3 Cu 0.4230(6) 0.4468(4) 0.0221(6)
Cu2_3 Cu 0.4493(5) 0.4249(3) 0.1611(6)
Cu3_4 Cu 0.5137(6) 0.4726(4) 0.0492(5)
Cu4_2 Cu 0.4716(4) 0.5132(3) 0.1317(6)
H3_3 H 0.7303 0.5345 0.0385
H12_4 H 0.5995 0.4583 0.0410
N9_3 N 0.4176(29) 0.3760(25) 0.2518(17)
N10_2 N 0.4839(22) 0.5752(19) 0.205(2)
I4_3 I 0.49441(28) 0.53791(19) 0.9813(3)
N1_3 N 0.3802(21) 0.4224(15) 0.939(2)
N2_3 N 0.2907(25) 0.3750(14) 0.5851(17)
N3_4 N 0.5597(18) 0.4754(12) 0.9836(17)
N4_3 N 0.3450(18) 0.3810(13) 0.820(2)
N5_4 N 0.6248(20) 0.4747(13) 0.934(2)
N6_3 N 0.7581(19) 0.5753(11) 0.872(2)
C1_3 C 0.3341(21) 0.4147(15) 0.921(2)
H1_3 H 0.3187 0.4254 0.9567
C2_3 C 0.3803(21) 0.4008(16) 0.875(2)
H2_4 H 0.4079 0.3986 0.8645
N7_3 N 0.3313(27) 0.3737(16) 0.679(2)
N8_3 N 0.7129(25) 0.5123(14) 0.925(2)
C3_3 C 0.7356(26) 0.5421(16) 0.984(3)
C4_4 C 0.6074(18) 0.4890(12) 0.873(2)
H4_4 H 0.6185 0.4975 0.8205
C5_3 C 0.3133(21) 0.3924(15) 0.855(2)
H5_3 H 0.2831 0.3856 0.8358
C6_3 C 0.3638(29) 0.4148(17) 0.632(3)
H6_3 H 0.3964 0.4368 0.6422
C7_3 C 0.3255(22) 0.3444(18) 0.760(4)
H7_2 H 0.2917 0.3213 0.7709
H8_3 H 0.3435 0.3272 0.7574
C8_3 C 0.6694(21) 0.4702(17) 0.936(3)
H9_3 H 0.6704 0.4561 0.9869
H10_4 H 0.6664 0.4476 0.8937
C9_3 C 0.7266(25) 0.5336(14) 0.846(3)
H11_3 H 0.7161 0.5213 0.7946
C10_4 C 0.5947(16) 0.4686(10) 0.9910(19)
C11_4 C 0.5722(23) 0.4875(15) 0.907(2)
H13_4 H 0.5528 0.4955 0.8757
C12_3 C 0.3383(29) 0.4147(17) 0.573(3)
H14_3 H 0.3487 0.4366 0.5309
C13_4 C 0.2828(26) 0.3472(16) 0.647(2)
H15_3 H 0.2552 0.3196 0.6659
C14_3 C 0.7664(29) 0.5839(17) 0.956(2)
H16_3 H 0.7883 0.6121 0.9823
Cu5_3 Cu 0.2418(6) 0.3577(4) 0.4944(6)
Cu6_3 Cu 0.8201(5) 0.6251(3) 0.7984(6)
I1_4 I 0.21687(17) 0.26148(18) 0.4830(3)
I2_5 I 0.28800(19) 0.40459(19) 0.3633(3)
I3_5 I 0.1728(2) 0.3768(2) 0.5317(2)
I4_4 I 0.12876(19) 0.2898(2) 0.3146(3)
Cu1_4 Cu 0.2199(4) 0.3095(4) 0.3554(6)
Cu3_5 Cu 0.1941(4) 0.3744(4) 0.3825(5)
Cu4_3 Cu 0.1535(3) 0.2917(3) 0.4650(6)
N1_4 N 0.2443(15) 0.2911(14) 0.272(2)
N3_5 N 0.1913(12) 0.4176(14) 0.3169(17)
N4_4 N 0.2857(13) 0.2973(13) 0.153(2)
N5_5 N 0.1920(13) 0.4834(15) 0.267(2)
C1_4 C 0.2520(15) 0.2527(14) 0.254(2)
H1_4 H 0.2413 0.2266 0.2900
C2_4 C 0.2659(16) 0.3128(13) 0.208(2)
H2_5 H 0.2681 0.3426 0.1978
N7_4 N 0.2930(16) 0.2909(22) 0.012(2)
N8_4 N 0.1544(14) 0.5339(21) 0.258(2)
C3_4 C 0.1246(16) 0.5268(21) 0.317(3)
H3_4 H 0.1322 0.5291 0.3718
C4_5 C 0.1777(12) 0.4517(14) 0.206(2)
H4_5 H 0.1692 0.4543 0.1538
C5_4 C 0.2743(15) 0.2542(15) 0.188(2)
H5_4 H 0.2811 0.2308 0.1691
C7_4 C 0.3223(18) 0.3144(12) 0.093(4)
H7_3 H 0.3454 0.3037 0.1042
H8_4 H 0.3395 0.3496 0.0907
C8_4 C 0.1965(17) 0.5325(13) 0.269(3)
H9_4 H 0.2106 0.5476 0.3202
H10_5 H 0.2191 0.5521 0.2270
C9_4 C 0.1331(14) 0.5263(21) 0.179(3)
H11_4 H 0.1454 0.5281 0.1279
C10_5 C 0.1981(10) 0.4594(13) 0.3243(19)
H12_5 H 0.2084 0.4745 0.3743
C11_5 C 0.1792(15) 0.4180(18) 0.240(2)
H13_5 H 0.1712 0.3906 0.2090
C14_4 C 0.0828(17) 0.5158(23) 0.289(2)
H16_4 H 0.0546 0.5095 0.3156
N10_3 N 0.0914(19) 0.2420(11) 0.539(2)
N2_4 N 0.2917(14) 0.2490(21) 0.9184(17)
C6_4 C 0.2519(17) 0.2823(24) 0.965(3)
H6_4 H 0.2299 0.2929 0.9755
C12_4 C 0.2520(17) 0.2569(23) 0.906(3)
H14_4 H 0.2301 0.2454 0.8642
C13_5 C 0.3195(16) 0.2689(21) 0.980(2)
H15_4 H 0.3471 0.2689 0.9992
Cu5_4 Cu 0.3089(4) 0.2174(5) 0.8278(6)
I1_5 I 0.73852(18) 0.95538(25) 0.4830(3)
I2_6 I 0.59541(19) 0.88340(27) 0.3633(3)
I3_6 I 0.6232(2) 0.7959(3) 0.5317(2)
I4_5 I 0.7102(2) 0.83892(28) 0.3146(3)
Cu1_5 Cu 0.6905(4) 0.9103(6) 0.3554(6)
Cu3_6 Cu 0.6256(4) 0.8196(6) 0.3825(5)
Cu4_4 Cu 0.7083(3) 0.8617(4) 0.4650(6)
N1_5 N 0.7089(14) 0.9531(21) 0.272(2)
N3_6 N 0.5824(14) 0.7736(18) 0.3169(17)
N4_5 N 0.7027(13) 0.9883(18) 0.153(2)
N5_6 N 0.5166(15) 0.7085(20) 0.267(2)
C1_5 C 0.7473(14) 0.9992(21) 0.254(2)
C2_5 C 0.6872(13) 0.9530(21) 0.208(2)
H2_6 H 0.6574 0.9254 0.1978
N8_5 N 0.4661(21) 0.6204(25) 0.258(2)
C3_5 C 0.4732(21) 0.5977(26) 0.317(3)
H3_5 H 0.4709 0.6030 0.3718
C4_6 C 0.5483(14) 0.7259(18) 0.206(2)
H4_6 H 0.5457 0.7148 0.1538
H8_5 H 0.6504 0.9898 0.0907
C8_5 C 0.4675(13) 0.6639(21) 0.269(3)
H9_5 H 0.4524 0.6629 0.3202
H10_6 H 0.4479 0.6669 0.2270
C9_5 C 0.4737(21) 0.6067(25) 0.179(3)
H11_5 H 0.4719 0.6172 0.1279
C10_6 C 0.5406(13) 0.7386(16) 0.3243(19)
H12_6 H 0.5255 0.7338 0.3743
C11_6 C 0.5820(18) 0.7611(23) 0.240(2)
H13_6 H 0.6094 0.7805 0.2090
C14_5 C 0.4842(23) 0.5669(29) 0.289(2)
H16_5 H 0.4905 0.5450 0.3156
N10_4 N 0.7580(11) 0.8495(22) 0.539(2)
N2_5 N 0.9574(25) 0.7083(14) 0.9184(17)
C13_6 C 0.9495(26) 0.6805(16) 0.980(2)
H15_5 H 0.9219 0.6529 0.9992
Cu5_5 Cu 0.9084(6) 0.6911(4) 0.8278(6)
I1_6 I 0.88353(17) 0.59482(18) 0.8164(3)
I2_7 I 0.95466(19) 0.73793(19) 0.6967(3)
I3_7 I 0.8394(2) 0.7102(2) 0.8651(2)
I4_6 I 0.79542(19) 0.6232(2) 0.6480(3)
Cu1_6 Cu 0.8865(4) 0.6429(4) 0.6888(6)
Cu3_7 Cu 0.8607(4) 0.7078(4) 0.7159(5)
N1_6 N 0.9109(15) 0.6245(14) 0.606(2)
N3_7 N 0.8579(12) 0.7510(14) 0.6503(17)
N4_6 N 0.9523(13) 0.6307(13) 0.487(2)
N5_7 N 0.8586(13) 0.8168(15) 0.601(2)
C1_6 C 0.9186(15) 0.5861(14) 0.588(2)
H1_5 H 0.9079 0.5600 0.6234
C2_6 C 0.9325(16) 0.6462(13) 0.542(2)
H2_7 H 0.9347 0.6760 0.5312
N7_5 N 0.9596(16) 0.6243(22) 0.346(2)
N8_6 N 0.8210(14) 0.8673(21) 0.592(2)
C3_6 C 0.7912(16) 0.8602(21) 0.651(3)
H3_6 H 0.7988 0.8625 0.7052
C4_7 C 0.8443(12) 0.7851(14) 0.540(2)
H4_7 H 0.8358 0.7877 0.4872
C5_5 C 0.9409(15) 0.5876(15) 0.522(2)
H5_5 H 0.9477 0.5642 0.5025
C6_5 C 0.9185(17) 0.6157(24) 0.299(3)
H6_5 H 0.8965 0.6263 0.3089
C7_5 C 0.9889(18) 0.6478(12) 0.427(4)
C8_6 C 0.8631(17) 0.8659(13) 0.603(3)
H9_6 H 0.8772 0.8810 0.6536
H10_7 H 0.8857 0.8855 0.5604
C9_6 C 0.7997(14) 0.8597(21) 0.513(3)
H11_6 H 0.8120 0.8615 0.4613
C10_7 C 0.8647(10) 0.7928(13) 0.6577(19)
H12_7 H 0.8750 0.8079 0.7077
C11_7 C 0.8458(15) 0.7514(18) 0.574(2)
H13_7 H 0.8378 0.7240 0.5424
C12_5 C 0.9186(17) 0.5903(23) 0.240(3)
H14_5 H 0.8967 0.5788 0.1976
C13_7 C 0.9861(16) 0.6023(21) 0.314(2)
C14_6 C 0.7494(17) 0.8492(23) 0.623(2)
H16_6 H 0.7212 0.8429 0.6490
I1_7 I 0.40518(18) 0.28872(25) 0.8164(3)
I2_8 I 0.26207(19) 0.21674(27) 0.6967(3)
I3_8 I 0.2898(2) 0.1293(3) 0.8651(2)
I4_7 I 0.3768(2) 0.17226(28) 0.6480(3)
Cu1_7 Cu 0.3571(4) 0.2437(6) 0.6888(6)
Cu3_8 Cu 0.2922(4) 0.1530(6) 0.7159(5)
N1_7 N 0.3755(14) 0.2865(21) 0.606(2)
N3_8 N 0.2490(14) 0.1070(18) 0.6503(17)
N4_7 N 0.3693(13) 0.3217(18) 0.487(2)
N5_8 N 0.1832(15) 0.0419(20) 0.601(2)
C1_7 C 0.4139(14) 0.3326(21) 0.588(2)
H1_6 H 0.4400 0.3480 0.6234
C2_7 C 0.3538(13) 0.2864(21) 0.542(2)
H2_8 H 0.3240 0.2588 0.5312
N7_6 N 0.3757(22) 0.3354(27) 0.346(2)
C4_8 C 0.2149(14) 0.0593(18) 0.540(2)
H4_8 H 0.2123 0.0482 0.4872
C5_6 C 0.4124(15) 0.3534(21) 0.522(2)
H5_6 H 0.4358 0.3836 0.5025
C6_6 C 0.3843(24) 0.3029(29) 0.299(3)
H6_6 H 0.3737 0.2703 0.3089
C7_6 C 0.3522(12) 0.3412(22) 0.427(4)
H7_4 H 0.3629 0.3750 0.4376
H8_6 H 0.3170 0.3232 0.4241
H10_8 H 0.1145 0.0003 0.5604
C10_8 C 0.2072(13) 0.0720(16) 0.6577(19)
H12_8 H 0.1921 0.0672 0.7077
C11_8 C 0.2486(18) 0.0945(23) 0.574(2)
H13_8 H 0.2760 0.1139 0.5424
C12_6 C 0.4097(23) 0.3284(29) 0.240(3)
H14_6 H 0.4212 0.3180 0.1976
C13_8 C 0.3977(21) 0.3839(26) 0.314(2)
H15_6 H 0.3977 0.4115 0.3326
N8_7 N 0.0462(25) 0.1790(14) 0.592(2)
C3_7 C 0.0689(26) 0.2088(16) 0.651(3)
H3_7 H 0.0636 0.2012 0.7052
C8_7 C 0.0027(21) 0.1369(17) 0.603(3)
H9_7 H 0.0037 0.1228 0.6536
C9_7 C 0.0599(25) 0.2003(14) 0.513(3)
H11_7 H 0.0494 0.1880 0.4613
C14_7 C 0.0997(29) 0.2506(17) 0.623(2)
H16_7 H 0.1216 0.2788 0.6490
I1_8 I 0.55020(17) 0.92815(18) 0.1497(3)
Cu1_8 Cu 0.5532(4) 0.9762(4) 0.0221(6)
Cu4_5 Cu 0.4868(3) 0.9584(3) 0.1317(6)
N10_5 N 0.4248(19) 0.9086(11) 0.205(2)
I4_8 I 0.0435(2) 0.50559(28) 0.9813(3)
N1_8 N 0.0422(14) 0.6198(21) 0.939(2)
N2_6 N 0.0843(21) 0.7093(25) 0.5851(17)
N4_8 N 0.0360(13) 0.6550(18) 0.820(2)
C1_8 C 0.0806(14) 0.6659(21) 0.921(2)
H1_7 H 0.1067 0.6813 0.9567
C2_8 C 0.0205(13) 0.6197(21) 0.875(2)
N7_7 N 0.0424(22) 0.6687(27) 0.679(2)
C5_7 C 0.0791(15) 0.6867(21) 0.855(2)
H5_7 H 0.1025 0.7169 0.8358
C6_7 C 0.0510(24) 0.6362(29) 0.632(3)
H6_7 H 0.0404 0.6036 0.6422
C7_7 C 0.0189(12) 0.6745(22) 0.760(4)
H7_5 H 0.0296 0.7083 0.7709
C12_7 C 0.0764(23) 0.6617(29) 0.573(3)
H14_7 H 0.0879 0.6513 0.5309
C13_9 C 0.0644(21) 0.7172(26) 0.647(2)
H15_7 H 0.0644 0.7448 0.6659
Cu5_6 Cu 0.1160(5) 0.7582(6) 0.4944(6)
I1_9 I 0.04462(25) 0.78313(17) 0.4830(3)
I2_9 I 0.11660(27) 0.71200(19) 0.3633(3)
I3_9 I 0.2041(3) 0.8272(2) 0.5317(2)
I4_9 I 0.16108(28) 0.87124(19) 0.3146(3)
Cu1_9 Cu 0.0897(6) 0.7801(4) 0.3554(6)
Cu3_9 Cu 0.1804(6) 0.8059(4) 0.3825(5)
Cu4_6 Cu 0.1383(4) 0.8465(3) 0.4650(6)
N1_9 N 0.0469(21) 0.7557(15) 0.272(2)
N3_9 N 0.2264(18) 0.8087(12) 0.3169(17)
N4_9 N 0.0117(18) 0.7143(13) 0.153(2)
N5_9 N 0.2915(20) 0.8080(13) 0.267(2)
C1_9 C 0.0008(21) 0.7480(15) 0.254(2)
C2_9 C 0.0470(21) 0.7341(16) 0.208(2)
H2_9 H 0.0746 0.7319 0.1978
N8_8 N 0.3796(25) 0.8456(14) 0.258(2)
C3_8 C 0.4023(26) 0.8754(16) 0.317(3)
H3_8 H 0.3970 0.8678 0.3718
C4_9 C 0.2741(18) 0.8223(12) 0.206(2)
H4_9 H 0.2852 0.8308 0.1538
H8_7 H 0.0102 0.6605 0.0907
C8_8 C 0.3361(21) 0.8035(17) 0.269(3)
H9_8 H 0.3371 0.7894 0.3202
H10_9 H 0.3331 0.7809 0.2270
C9_8 C 0.3933(25) 0.8669(14) 0.179(3)
H11_8 H 0.3828 0.8546 0.1279
C10_9 C 0.2614(16) 0.8019(10) 0.3243(19)
H12_9 H 0.2662 0.7916 0.3743
C11_9 C 0.2389(23) 0.8208(15) 0.240(2)
H13_9 H 0.2195 0.8288 0.2090
C14_8 C 0.4331(29) 0.9172(17) 0.289(2)
H16_8 H 0.4550 0.9454 0.3156
N10_6 N 0.1505(22) 0.9086(19) 0.539(2)
N8_9 N 0.1327(21) 0.9538(25) 0.592(2)
C3_9 C 0.1398(21) 0.9311(26) 0.651(3)
H3_9 H 0.1375 0.9364 0.7052
C8_9 C 0.1341(13) 0.9973(21) 0.603(3)
H9_9 H 0.1190 0.9963 0.6536
C9_9 C 0.1403(21) 0.9401(25) 0.513(3)
H11_9 H 0.1385 0.9506 0.4613
C14_9 C 0.1508(23) 0.9003(29) 0.623(2)
H16_9 H 0.1571 0.8784 0.6490
I2_10 I 0.44993(27) 0.07126(19) 0.5300(3)
I3_10 I 0.5374(3) 0.0435(2) 0.6984(2)
Cu2_4 Cu 0.4493(5) 0.0244(4) 0.6611(6)
Cu3_10 Cu 0.5137(6) 0.0411(4) 0.5492(5)
N3_10 N 0.5597(18) 0.0843(14) 0.4836(17)
N5_10 N 0.6248(20) 0.1501(15) 0.434(2)
N6_4 N 0.7581(19) 0.1828(16) 0.372(2)
H2_10 H 0.4079 0.0093 0.3645
N8_10 N 0.7129(25) 0.2006(21) 0.425(2)
C3_10 C 0.7356(26) 0.1935(21) 0.484(3)
H3_10 H 0.7303 0.1958 0.5385
C4_10 C 0.6074(18) 0.1184(14) 0.373(2)
H4_10 H 0.6185 0.1210 0.3205
H8_8 H 0.3435 0.0163 0.2574
C8_10 C 0.6694(21) 0.1992(13) 0.436(3)
H9_10 H 0.6704 0.2143 0.4869
H10_10 H 0.6664 0.2188 0.3937
C9_10 C 0.7266(25) 0.1930(21) 0.346(3)
H11_10 H 0.7161 0.1948 0.2946
C10_10 C 0.5947(16) 0.1261(13) 0.4910(19)
H12_10 H 0.5995 0.1412 0.5410
C11_10 C 0.5722(23) 0.0847(18) 0.407(2)
H13_10 H 0.5528 0.0573 0.3757
C14_10 C 0.7664(29) 0.1825(23) 0.456(2)
H16_10 H 0.7883 0.1762 0.4823
Cu6_4 Cu 0.8201(5) 0.1951(4) 0.2984(6)
N9_4 N 0.4176(29) 0.0417(14) 0.7518(17)
Cu5_7 Cu 0.2418(6) 0.8840(5) 0.9944(6)
I1_10 I 0.55020(17) 0.62205(25) 0.6497(3)
I2_11 I 0.62133(19) 0.55007(27) 0.5300(3)
I3_11 I 0.5061(2) 0.4626(3) 0.6984(2)
I4_10 I 0.46209(19) 0.50559(28) 0.4813(3)
Cu1_10 Cu 0.5532(4) 0.5770(6) 0.5221(6)
Cu2_5 Cu 0.5751(3) 0.5507(5) 0.6611(6)
Cu3_11 Cu 0.5274(4) 0.4863(6) 0.5492(5)
Cu4_7 Cu 0.4868(3) 0.5284(4) 0.6317(6)
N1_10 N 0.5776(15) 0.6198(21) 0.439(2)
N2_7 N 0.6250(14) 0.7093(25) 0.0851(17)
N3_11 N 0.5246(12) 0.4403(18) 0.4836(17)
N4_10 N 0.6190(13) 0.6550(18) 0.320(2)
N5_11 N 0.5253(13) 0.3752(20) 0.434(2)
N6_5 N 0.4247(11) 0.2419(19) 0.372(2)
C1_10 C 0.5853(15) 0.6659(21) 0.421(2)
H1_8 H 0.5746 0.6813 0.4567
C2_10 C 0.5992(16) 0.6197(21) 0.375(2)
H2_11 H 0.6014 0.5921 0.3645
N7_8 N 0.6263(16) 0.6687(27) 0.179(2)
N8_11 N 0.4877(14) 0.2871(25) 0.425(2)
C3_11 C 0.4579(16) 0.2644(26) 0.484(3)
H3_11 H 0.4655 0.2697 0.5385
C4_11 C 0.5110(12) 0.3926(18) 0.373(2)
H4_11 H 0.5025 0.3815 0.3205
C5_8 C 0.6076(15) 0.6867(21) 0.355(2)
H5_8 H 0.6144 0.7169 0.3358
C6_8 C 0.5852(17) 0.6362(29) 0.132(3)
H6_8 H 0.5632 0.6036 0.1422
C7_8 C 0.6556(18) 0.6745(22) 0.260(4)
H7_6 H 0.6787 0.7083 0.2709
H8_9 H 0.6728 0.6565 0.2574
C8_11 C 0.5298(17) 0.3306(21) 0.436(3)
H9_11 H 0.5439 0.3296 0.4869
H10_11 H 0.5524 0.3336 0.3937
C9_11 C 0.4664(14) 0.2734(25) 0.346(3)
H11_11 H 0.4787 0.2839 0.2946
C10_11 C 0.5314(10) 0.4053(16) 0.4910(19)
H12_11 H 0.5417 0.4005 0.5410
C11_11 C 0.5125(15) 0.4278(23) 0.407(2)
H13_11 H 0.5045 0.4472 0.3757
C12_8 C 0.5853(17) 0.6617(29) 0.073(3)
H14_8 H 0.5634 0.6513 0.0309
C13_10 C 0.6528(16) 0.7172(26) 0.147(2)
H15_8 H 0.6804 0.7448 0.1659
C14_11 C 0.4161(17) 0.2336(29) 0.456(2)
H16_11 H 0.3879 0.2117 0.4823
Cu6_5 Cu 0.3749(3) 0.1799(5) 0.2984(6)
N9_5 N 0.6240(25) 0.5824(29) 0.7518(17)
N10_7 N 0.4248(19) 0.5161(22) 0.705(2)
I1_11 I 0.07185(18) 0.44980(17) 0.6497(3)
I4_11 I 0.0435(2) 0.53791(19) 0.4813(3)
Cu1_11 Cu 0.0238(4) 0.4468(4) 0.5221(6)
Cu4_8 Cu 0.0416(3) 0.5132(3) 0.6317(6)
N1_11 N 0.0422(14) 0.4224(15) 0.439(2)
N2_8 N 0.0843(21) 0.3750(14) 0.0851(17)
N4_11 N 0.0360(13) 0.3810(13) 0.320(2)
C1_11 C 0.0806(14) 0.4147(15) 0.421(2)
H1_9 H 0.1067 0.4254 0.4567
C2_11 C 0.0205(13) 0.4008(16) 0.375(2)
N7_9 N 0.0424(22) 0.3737(16) 0.179(2)
C5_9 C 0.0791(15) 0.3924(15) 0.355(2)
H5_9 H 0.1025 0.3856 0.3358
C6_9 C 0.0510(24) 0.4148(17) 0.132(3)
H6_9 H 0.0404 0.4368 0.1422
C7_9 C 0.0189(12) 0.3444(18) 0.260(4)
H7_7 H 0.0296 0.3213 0.2709
C12_9 C 0.0764(23) 0.4147(17) 0.073(3)
H14_9 H 0.0879 0.4366 0.0309
C13_11 C 0.0644(21) 0.3472(16) 0.147(2)
H15_9 H 0.0644 0.3196 0.1659
N10_8 N 0.0914(11) 0.5752(19) 0.705(2)
Cu5_8 Cu 0.1160(5) 0.3577(4) 0.9944(6)
I3_12 I 0.2041(3) 0.3768(2) 0.0317(2)
N10_9 N 0.1505(22) 0.2420(11) 0.039(2)
I1_12 I 0.04462(25) 0.26148(18) 0.9830(3)
I2_12 I 0.11660(27) 0.40459(19) 0.8633(3)
I4_12 I 0.16108(28) 0.2898(2) 0.8146(3)
Cu1_12 Cu 0.0897(6) 0.3095(4) 0.8554(6)
Cu3_12 Cu 0.1804(6) 0.3744(4) 0.8825(5)
Cu4_9 Cu 0.1383(4) 0.2917(3) 0.9650(6)
N1_12 N 0.0469(21) 0.2911(14) 0.772(2)
N3_12 N 0.2264(18) 0.4176(14) 0.8169(17)
N4_12 N 0.0117(18) 0.2973(13) 0.653(2)
N5_12 N 0.2915(20) 0.4834(15) 0.767(2)
C1_12 C 0.0008(21) 0.2527(14) 0.754(2)
C2_12 C 0.0470(21) 0.3128(13) 0.708(2)
H2_12 H 0.0746 0.3426 0.6978
N8_12 N 0.3796(25) 0.5339(21) 0.758(2)
C3_12 C 0.4023(26) 0.5268(21) 0.817(3)
H3_12 H 0.3970 0.5291 0.8718
C4_12 C 0.2741(18) 0.4517(14) 0.706(2)
H4_12 H 0.2852 0.4543 0.6538
C6_10 C 0.0305(29) 0.2823(24) 0.465(3)
H6_10 H 0.0631 0.2929 0.4755
H8_10 H 0.0102 0.3496 0.5907
C8_12 C 0.3361(21) 0.5325(13) 0.769(3)
H9_12 H 0.3371 0.5476 0.8202
H10_12 H 0.3331 0.5521 0.7270
C9_12 C 0.3933(25) 0.5263(21) 0.679(3)
H11_12 H 0.3828 0.5281 0.6279
C10_12 C 0.2614(16) 0.4594(13) 0.8243(19)
H12_12 H 0.2662 0.4745 0.8743
C11_12 C 0.2389(23) 0.4180(18) 0.740(2)
H13_12 H 0.2195 0.3906 0.7090
C12_10 C 0.0050(29) 0.2569(23) 0.406(3)
H14_10 H 0.0154 0.2454 0.3642
C14_12 C 0.4331(29) 0.5158(23) 0.789(2)
H16_12 H 0.4550 0.5095 0.8156
N2_9 N 0.9574(25) 0.2490(21) 0.4184(17)
H1_10 H 0.9854 0.2266 0.7900
N7_10 N 0.9980(27) 0.2909(22) 0.512(2)
C5_10 C 0.9800(21) 0.2542(15) 0.688(2)
H5_10 H 0.9498 0.2308 0.6691
C7_10 C 0.9922(22) 0.3144(12) 0.593(4)
H7_8 H 0.9584 0.3037 0.6042
C13_12 C 0.9495(26) 0.2689(21) 0.480(2)
H15_10 H 0.9219 0.2689 0.4992
Cu5_9 Cu 0.9084(6) 0.2174(5) 0.3278(6)
N2_10 N 0.2917(14) 0.0426(25) 0.4184(17)
H1_11 H 0.2413 0.0146 0.7900
N7_11 N 0.2930(16) 0.0020(27) 0.512(2)
C5_11 C 0.2743(15) 0.0200(21) 0.688(2)
H5_11 H 0.2811 0.0502 0.6691
C7_11 C 0.3223(18) 0.0078(22) 0.593(4)
H7_9 H 0.3454 0.0416 0.6042
C13_13 C 0.3195(16) 0.0505(26) 0.480(2)
H15_11 H 0.3471 0.0781 0.4992
Cu5_10 Cu 0.3089(4) 0.0916(6) 0.3278(6)
I1_13 I 0.21687(17) 0.95538(25) 0.9830(3)
I2_13 I 0.28800(19) 0.88340(27) 0.8633(3)
I4_13 I 0.12876(19) 0.83892(28) 0.8146(3)
Cu1_13 Cu 0.2199(4) 0.9103(6) 0.8554(6)
Cu3_13 Cu 0.1941(4) 0.8196(6) 0.8825(5)
Cu4_10 Cu 0.1535(3) 0.8617(4) 0.9650(6)
N1_13 N 0.2443(15) 0.9531(21) 0.772(2)
N3_13 N 0.1913(12) 0.7736(18) 0.8169(17)
N4_13 N 0.2857(13) 0.9883(18) 0.653(2)
N5_13 N 0.1920(13) 0.7085(20) 0.767(2)
C1_13 C 0.2520(15) 0.9992(21) 0.754(2)
C2_13 C 0.2659(16) 0.9530(21) 0.708(2)
H2_13 H 0.2681 0.9254 0.6978
N8_13 N 0.1544(14) 0.6204(25) 0.758(2)
C3_13 C 0.1246(16) 0.5977(26) 0.817(3)
H3_13 H 0.1322 0.6030 0.8718
C4_13 C 0.1777(12) 0.7259(18) 0.706(2)
H4_13 H 0.1692 0.7148 0.6538
C6_11 C 0.2519(17) 0.9695(29) 0.465(3)
H6_11 H 0.2299 0.9369 0.4755
H8_11 H 0.3395 0.9898 0.5907
C8_13 C 0.1965(17) 0.6639(21) 0.769(3)
H9_13 H 0.2106 0.6629 0.8202
H10_13 H 0.2191 0.6669 0.7270
C9_13 C 0.1331(14) 0.6067(25) 0.679(3)
H11_13 H 0.1454 0.6172 0.6279
C10_13 C 0.1981(10) 0.7386(16) 0.8243(19)
H12_13 H 0.2084 0.7338 0.8743
C11_13 C 0.1792(15) 0.7611(23) 0.740(2)
H13_13 H 0.1712 0.7805 0.7090
C12_11 C 0.2520(17) 0.9950(29) 0.406(3)
H14_11 H 0.2301 0.9846 0.3642
C14_13 C 0.0828(17) 0.5669(29) 0.789(2)
H16_13 H 0.0546 0.5450 0.8156
I3_13 I 0.6232(2) 0.8272(2) 0.0317(2)
N10_10 N 0.7580(11) 0.9086(19) 0.039(2)
H11_14 H 0.0494 0.8615 0.9613
N4_14 N 0.6783(18) 0.6307(13) 0.987(2)
N7_12 N 0.6646(27) 0.6243(22) 0.846(2)
H4_14 H 0.9518 0.7877 0.9872
C6_12 C 0.6971(29) 0.6157(24) 0.799(3)
H6_12 H 0.7297 0.6263 0.8089
C7_12 C 0.6588(22) 0.6478(12) 0.927(4)
H7_10 H 0.6250 0.6371 0.9376
H8_12 H 0.6768 0.6830 0.9241
C12_12 C 0.6716(29) 0.5903(23) 0.740(3)
H14_12 H 0.6820 0.5788 0.6976
C13_14 C 0.6161(26) 0.6023(21) 0.814(2)
H15_12 H 0.5885 0.6023 0.8326
I1_14 I 0.88353(17) 0.28872(25) 0.3164(3)
I2_14 I 0.95466(19) 0.21674(27) 0.1967(3)
I3_14 I 0.8394(2) 0.1293(3) 0.3651(2)
I4_14 I 0.79542(19) 0.17226(28) 0.1480(3)
Cu1_14 Cu 0.8865(4) 0.2437(6) 0.1888(6)
Cu3_14 Cu 0.8607(4) 0.1530(6) 0.2159(5)
N1_14 N 0.9109(15) 0.2865(21) 0.106(2)
N3_14 N 0.8579(12) 0.1070(18) 0.1503(17)
N5_14 N 0.8586(13) 0.0419(20) 0.101(2)
C1_14 C 0.9186(15) 0.3326(21) 0.088(2)
H1_12 H 0.9079 0.3480 0.1234
C2_14 C 0.9325(16) 0.2864(21) 0.042(2)
H2_14 H 0.9347 0.2588 0.0312
C4_14 C 0.8443(12) 0.0593(18) 0.040(2)
C5_12 C 0.9409(15) 0.3534(21) 0.022(2)
H5_12 H 0.9477 0.3836 0.0025
H10_14 H 0.8857 0.0003 0.0604
C10_14 C 0.8647(10) 0.0720(16) 0.1577(19)
H12_14 H 0.8750 0.0672 0.2077
C11_14 C 0.8458(15) 0.0945(23) 0.074(2)
H13_14 H 0.8378 0.1139 0.0424
N8_14 N 0.8210(14) 0.9538(25) 0.092(2)
C3_14 C 0.7912(16) 0.9311(26) 0.151(3)
H3_14 H 0.7988 0.9364 0.2052
C8_14 C 0.8631(17) 0.9973(21) 0.103(3)
H9_14 H 0.8772 0.9963 0.1536
C9_14 C 0.7997(14) 0.9401(25) 0.013(3)
C14_14 C 0.7494(17) 0.9003(29) 0.123(2)
H16_14 H 0.7212 0.8784 0.1490
I1_15 I 0.40518(18) 0.11647(17) 0.3164(3)
I2_15 I 0.26207(19) 0.04534(19) 0.1967(3)
I3_15 I 0.2898(2) 0.1606(2) 0.3651(2)
I4_15 I 0.3768(2) 0.20458(19) 0.1480(3)
Cu1_15 Cu 0.3571(4) 0.1135(4) 0.1888(6)
Cu3_15 Cu 0.2922(4) 0.1393(4) 0.2159(5)
N1_15 N 0.3755(14) 0.0891(15) 0.106(2)
N3_15 N 0.2490(14) 0.1421(12) 0.1503(17)
N5_15 N 0.1832(15) 0.1414(13) 0.101(2)
C1_15 C 0.4139(14) 0.0814(15) 0.088(2)
H1_13 H 0.4400 0.0921 0.1234
C2_15 C 0.3538(13) 0.0675(16) 0.042(2)
H2_15 H 0.3240 0.0653 0.0312
N8_15 N 0.1327(21) 0.1790(14) 0.092(2)
C3_15 C 0.1398(21) 0.2088(16) 0.151(3)
H3_15 H 0.1375 0.2012 0.2052
C4_15 C 0.2149(14) 0.1557(12) 0.040(2)
C5_13 C 0.4124(15) 0.0591(15) 0.022(2)
H5_13 H 0.4358 0.0523 0.0025
C8_15 C 0.1341(13) 0.1369(17) 0.103(3)
H9_15 H 0.1190 0.1228 0.1536
H10_15 H 0.1145 0.1143 0.0604
C9_15 C 0.1403(21) 0.2003(14) 0.013(3)
C10_15 C 0.2072(13) 0.1353(10) 0.1577(19)
H12_15 H 0.1921 0.1250 0.2077
C11_15 C 0.2486(18) 0.1542(15) 0.074(2)
H13_15 H 0.2760 0.1622 0.0424
C14_15 C 0.1508(23) 0.2506(17) 0.123(2)
H16_15 H 0.1571 0.2788 0.1490
N4_15 N 0.3693(13) 0.0477(13) 0.987(2)
N7_13 N 0.3757(22) 0.0404(16) 0.846(2)
H4_15 H 0.2123 0.1642 0.9872
C6_13 C 0.3843(24) 0.0815(17) 0.799(3)
H6_13 H 0.3737 0.1035 0.8089
C7_13 C 0.3522(12) 0.0111(18) 0.927(4)
H11_15 H 0.1385 0.1880 0.9613
C12_13 C 0.4097(23) 0.0814(17) 0.740(3)
H14_13 H 0.4212 0.1033 0.6976
C13_15 C 0.3977(21) 0.0139(16) 0.814(2)
I1_16 I 0.37795(25) 0.92815(18) 0.6497(3)
I4_16 I 0.49441(28) 0.9565(2) 0.4813(3)
Cu1_16 Cu 0.4230(6) 0.9762(4) 0.5221(6)
Cu4_11 Cu 0.4716(4) 0.9584(3) 0.6317(6)
N1_16 N 0.3802(21) 0.9578(14) 0.439(2)
N2_11 N 0.2907(25) 0.9157(21) 0.0851(17)
N4_16 N 0.3450(18) 0.9640(13) 0.320(2)
C1_16 C 0.3341(21) 0.9194(14) 0.421(2)
H1_14 H 0.3187 0.8933 0.4567
C2_16 C 0.3803(21) 0.9795(13) 0.375(2)
N7_14 N 0.3313(27) 0.9576(22) 0.179(2)
C5_14 C 0.3133(21) 0.9209(15) 0.355(2)
H5_14 H 0.2831 0.8975 0.3358
C6_14 C 0.3638(29) 0.9490(24) 0.132(3)
H6_14 H 0.3964 0.9596 0.1422
C7_14 C 0.3255(22) 0.9811(12) 0.260(4)
H7_11 H 0.2917 0.9704 0.2709
C12_14 C 0.3383(29) 0.9236(23) 0.073(3)
H14_14 H 0.3487 0.9121 0.0309
C13_16 C 0.2828(26) 0.9356(21) 0.147(2)
H15_13 H 0.2552 0.9356 0.1659
N10_11 N 0.4839(22) 0.9086(11) 0.705(2)
Cu5_11 Cu 0.6423(4) 0.7582(6) 0.9944(6)
I2_16 I 0.92874(19) 0.37867(19) 0.5300(3)
I3_16 I 0.9565(2) 0.4939(2) 0.6984(2)
Cu2_6 Cu 0.9756(4) 0.4249(3) 0.6611(6)
Cu3_16 Cu 0.9589(4) 0.4726(4) 0.5492(5)
N3_16 N 0.9157(14) 0.4754(12) 0.4836(17)
N5_16 N 0.8499(15) 0.4747(13) 0.434(2)
N6_6 N 0.8172(16) 0.5753(11) 0.372(2)
H2_16 H 0.9907 0.3986 0.3645
N8_16 N 0.7994(21) 0.5123(14) 0.425(2)
C3_16 C 0.8065(21) 0.5421(16) 0.484(3)
H3_16 H 0.8042 0.5345 0.5385
C4_16 C 0.8816(14) 0.4890(12) 0.373(2)
H4_16 H 0.8790 0.4975 0.3205
H8_13 H 0.9837 0.3272 0.2574
C8_16 C 0.8008(13) 0.4702(17) 0.436(3)
H9_16 H 0.7857 0.4561 0.4869
H10_16 H 0.7812 0.4476 0.3937
C9_16 C 0.8070(21) 0.5336(14) 0.346(3)
H11_16 H 0.8052 0.5213 0.2946
C10_16 C 0.8739(13) 0.4686(10) 0.4910(19)
H12_16 H 0.8588 0.4583 0.5410
C11_16 C 0.9153(18) 0.4875(15) 0.407(2)
H13_16 H 0.9427 0.4955 0.3757
C14_16 C 0.8175(23) 0.5839(17) 0.456(2)
H16_16 H 0.8238 0.6121 0.4823
Cu6_6 Cu 0.8049(4) 0.6251(3) 0.2984(6)
N9_6 N 0.9583(14) 0.3760(25) 0.7518(17)
I3_17 I 0.1728(2) 0.7959(3) 0.0317(2)
N10_12 N 0.0914(19) 0.8495(22) 0.039(2)
I1_17 I 0.73852(18) 0.78313(17) 0.9830(3)
I2_17 I 0.59541(19) 0.71200(19) 0.8633(3)
I4_17 I 0.7102(2) 0.87124(19) 0.8146(3)
Cu1_17 Cu 0.6905(4) 0.7801(4) 0.8554(6)
Cu3_17 Cu 0.6256(4) 0.8059(4) 0.8825(5)
Cu4_12 Cu 0.7083(3) 0.8465(3) 0.9650(6)
N1_17 N 0.7089(14) 0.7557(15) 0.772(2)
N2_12 N 0.7510(21) 0.7083(14) 0.4184(17)
N3_17 N 0.5824(14) 0.8087(12) 0.8169(17)
N4_17 N 0.7027(13) 0.7143(13) 0.653(2)
N5_17 N 0.5166(15) 0.8080(13) 0.767(2)
C1_17 C 0.7473(14) 0.7480(15) 0.754(2)
H1_15 H 0.7734 0.7587 0.7900
C2_17 C 0.6872(13) 0.7341(16) 0.708(2)
H2_17 H 0.6574 0.7319 0.6978
N7_15 N 0.7091(22) 0.7070(16) 0.512(2)
N8_17 N 0.4661(21) 0.8456(14) 0.758(2)
C3_17 C 0.4732(21) 0.8754(16) 0.817(3)
H3_17 H 0.4709 0.8678 0.8718
C4_17 C 0.5483(14) 0.8223(12) 0.706(2)
H4_17 H 0.5457 0.8308 0.6538
C5_15 C 0.7458(15) 0.7257(15) 0.688(2)
H5_15 H 0.7692 0.7189 0.6691
C6_15 C 0.7177(24) 0.7481(17) 0.465(3)
H6_15 H 0.7071 0.7701 0.4755
C7_15 C 0.6856(12) 0.6777(18) 0.593(4)
H7_12 H 0.6963 0.6546 0.6042
H8_14 H 0.6504 0.6605 0.5907
C8_17 C 0.4675(13) 0.8035(17) 0.769(3)
H9_17 H 0.4524 0.7894 0.8202
H10_17 H 0.4479 0.7809 0.7270
C9_17 C 0.4737(21) 0.8669(14) 0.679(3)
H11_17 H 0.4719 0.8546 0.6279
C10_17 C 0.5406(13) 0.8019(10) 0.8243(19)
H12_17 H 0.5255 0.7916 0.8743
C11_17 C 0.5820(18) 0.8208(15) 0.740(2)
H13_17 H 0.6094 0.8288 0.7090
C12_15 C 0.7431(23) 0.7480(17) 0.406(3)
H14_15 H 0.7546 0.7699 0.3642
C13_17 C 0.7311(21) 0.6805(16) 0.480(2)
H15_14 H 0.7311 0.6529 0.4992
C14_17 C 0.4842(23) 0.9172(17) 0.789(2)
H16_17 H 0.4905 0.9454 0.8156
Cu5_12 Cu 0.7826(5) 0.6911(4) 0.3278(6)
N8_18 N 0.0462(25) 0.8673(21) 0.092(2)
C3_18 C 0.0689(26) 0.8602(21) 0.151(3)
H3_18 H 0.0636 0.8625 0.2052
C8_18 C 0.0027(21) 0.8659(13) 0.103(3)
H9_18 H 0.0037 0.8810 0.1536
C9_18 C 0.0599(25) 0.8597(21) 0.013(3)
C14_18 C 0.0997(29) 0.8492(23) 0.123(2)
H16_18 H 0.1216 0.8429 0.1490
I1_18 I 0.71128(25) 0.59482(18) 0.3164(3)
I2_18 I 0.78326(27) 0.73793(19) 0.1967(3)
I3_18 I 0.8707(3) 0.7102(2) 0.3651(2)
I4_18 I 0.82774(28) 0.6232(2) 0.1480(3)
Cu1_18 Cu 0.7563(6) 0.6429(4) 0.1888(6)
Cu3_18 Cu 0.8470(6) 0.7078(4) 0.2159(5)
N1_18 N 0.7135(21) 0.6245(14) 0.106(2)
N3_18 N 0.8930(18) 0.7510(14) 0.1503(17)
N5_18 N 0.9581(20) 0.8168(15) 0.101(2)
C1_18 C 0.6674(21) 0.5861(14) 0.088(2)
H1_16 H 0.6520 0.5600 0.1234
C2_18 C 0.7136(21) 0.6462(13) 0.042(2)
H2_18 H 0.7412 0.6760 0.0312
C4_18 C 0.9407(18) 0.7851(14) 0.040(2)
C5_16 C 0.6466(21) 0.5876(15) 0.022(2)
H5_16 H 0.6164 0.5642 0.0025
H10_18 H 0.9997 0.8855 0.0604
C10_18 C 0.9280(16) 0.7928(13) 0.1577(19)
H12_18 H 0.9328 0.8079 0.2077
C11_18 C 0.9055(23) 0.7514(18) 0.074(2)
H13_18 H 0.8861 0.7240 0.0424
N4_18 N 0.9523(13) 0.3217(18) 0.987(2)
N7_16 N 0.9596(16) 0.3354(27) 0.846(2)
H4_18 H 0.8358 0.0482 0.9872
C6_16 C 0.9185(17) 0.3029(29) 0.799(3)
H6_16 H 0.8965 0.2703 0.8089
C7_16 C 0.9889(18) 0.3412(22) 0.927(4)
C12_16 C 0.9186(17) 0.3284(29) 0.740(3)
H14_16 H 0.8967 0.3180 0.6976
C13_18 C 0.9861(16) 0.3839(26) 0.814(2)
H11_18 H 0.8120 0.9506 0.9613
H1_17 H 0.7734 0.0146 0.2900
N7_17 N 0.7091(22) 0.0020(27) 0.012(2)
C5_17 C 0.7458(15) 0.0200(21) 0.188(2)
H5_17 H 0.7692 0.0502 0.1691
C7_17 C 0.6856(12) 0.0078(22) 0.093(4)
H7_13 H 0.6963 0.0416 0.1042
C6_17 C 0.7177(24) 0.9695(29) 0.965(3)
H6_17 H 0.7071 0.9369 0.9755
C12_17 C 0.7431(23) 0.9950(29) 0.906(3)
H14_17 H 0.7546 0.9846 0.8642
C6_18 C 0.0305(29) 0.7481(17) 0.965(3)
H6_18 H 0.0631 0.7701 0.9755
C12_18 C 0.0050(29) 0.7480(17) 0.906(3)
H14_18 H 0.0154 0.7699 0.8642
H1_18 H 0.9854 0.7587 0.2900
N7_18 N 0.9980(27) 0.7070(16) 0.012(2)
C5_18 C 0.9800(21) 0.7257(15) 0.188(2)
H5_18 H 0.9498 0.7189 0.1691
C7_18 C 0.9922(22) 0.6777(18) 0.093(4)
H7_14 H 0.9584 0.6546 0.1042
H7_15 H 0.0120 0.6371 0.4376
H8_15 H 0.0061 0.6830 0.4241
H15_15 H 0.0137 0.6023 0.3326
H7_16 H 0.6250 0.9880 0.4376
H8_16 H 0.6768 0.9939 0.4241
H15_16 H 0.5885 0.9863 0.3326
H7_17 H 0.0120 0.3750 0.9376
H8_17 H 0.0061 0.3232 0.9241
H15_17 H 0.0137 0.4115 0.8326
H7_18 H 0.3629 0.9880 0.9376
H8_18 H 0.3170 0.9939 0.9241
H15_18 H 0.3977 0.9863 0.8326
loop_
_geom_bond_atom_site_label_1
_geom_bond_atom_site_label_2
_geom_bond_site_symmetry_1
_geom_bond_site_symmetry_2
I3 Cu2 1_555 1_555
Cu3 I2 1_555 1_555
N9 Cu2 1_555 1_555
I2 Cu2 1_555 1_555
I3 Cu3 1_555 1_555
N5 C4 1_555 1_555
N6 C9 1_555 1_555
N8 C3 1_555 1_555
C4 H4 1_555 1_555
C8 N5 1_555 1_555
H9 C8 1_555 1_555
H10 C8 1_555 1_555
C9 N8 1_555 1_555
H11 C9 1_555 1_555
C10 N3 1_555 1_555
C11 N3 1_555 1_555
H13 C11 1_555 1_555
C14 N6 1_555 1_555
H16 C14 1_555 1_555
Cu6 N6 1_555 1_555
N5 C10 1_555 1_555
N8 C8 1_555 1_555
C3 C14 1_555 1_555
C4 C11 1_555 1_555
C13 N2 1_555 1_555
H15 C13 1_555 1_555
Cu5 N2 1_555 1_555
I1 Cu1 1_555 1_555
I2_2 Cu1 1_555 1_555
I3_2 Cu5 1_555 1_555
I4 Cu1 1_555 1_555
Cu1 N1 1_555 1_555
Cu5 I1 1_555 1_555
Cu3_2 I2_2 1_555 1_555
Cu6 I1 1_555 1_555
N1 C1 1_555 1_555
N9 C12 1_555 1_555
N3_2 Cu3_2 1_555 1_555
N4 C2 1_555 1_555
N5_2 C4_2 1_555 1_555
C1 H1 1_555 1_555
C2 N1 1_555 1_555
H2_2 C2 1_555 1_555
N7 C6 1_555 1_555
C4_2 H4_2 1_555 1_555
C5 N4 1_555 1_555
H5 C5 1_555 1_555
C6 H6 1_555 1_555
C7 N4 1_555 1_555
C10_2 N3_2 1_555 1_555
H12_2 C10_2 1_555 1_555
C11_2 N3_2 1_555 1_555
H13_2 C11_2 1_555 1_555
C12 C6 1_555 1_555
H14 C12 1_555 1_555
C13_2 N9 1_555 1_555
I2_2 Cu5 1_555 1_555
I3_2 Cu3_2 1_555 1_555
I3_2 Cu6 1_555 1_555
I4 Cu3_2 1_555 1_555
I4 Cu6 1_555 1_555
N5_2 C10_2 1_555 1_555
C1 C5 1_555 1_555
N7 C7 1_555 1_555
N7 C13_2 1_555 1_555
C4_2 C11_2 1_555 1_555
N5_3 C4_3 1_555 1_555
N6_2 C9_2 1_555 1_555
N8_2 C3_2 1_555 1_555
C4_3 H4_3 1_555 1_555
C8_2 N5_3 1_555 1_555
H9_2 C8_2 1_555 1_555
H10_3 C8_2 1_555 1_555
C9_2 N8_2 1_555 1_555
H11_2 C9_2 1_555 1_555
C10_3 N3_3 1_555 1_555
C11_3 N3_3 1_555 1_555
H13_3 C11_3 1_555 1_555
C14_2 N6_2 1_555 1_555
H16_2 C14_2 1_555 1_555
Cu6_2 N6_2 1_555 1_555
N5_3 C10_3 1_555 1_555
N8_2 C8_2 1_555 1_555
C3_2 C14_2 1_555 1_555
C4_3 C11_3 1_555 1_555
N1_2 C1_2 1_555 1_555
N2_2 C12_2 1_555 1_555
N4_2 C2_2 1_555 1_555
C1_2 H1_2 1_555 1_555
C2_2 N1_2 1_555 1_555
N7_2 C6_2 1_555 1_555
C5_2 N4_2 1_555 1_555
H5_2 C5_2 1_555 1_555
C6_2 H6_2 1_555 1_555
C7_2 N4_2 1_555 1_555
H7 C7_2 1_555 1_555
C12_2 C6_2 1_555 1_555
H14_2 C12_2 1_555 1_555
C13_3 N2_2 1_555 1_555
H15_2 C13_3 1_555 1_555
Cu5_2 N2_2 1_555 1_555
C1_2 C5_2 1_555 1_555
N7_2 C7_2 1_555 1_555
N7_2 C13_3 1_555 1_555
I1_2 Cu1_2 1_555 1_555
Cu4 I1_2 1_555 1_555
N10 Cu4 1_555 1_555
I3_3 Cu2_2 1_555 1_555
Cu3_3 I2_3 1_555 1_555
N9_2 Cu2_2 1_555 1_555
I2_3 Cu2_2 1_555 1_555
I3_3 Cu3_3 1_555 1_555
I1_3 Cu1_3 1_555 1_555
I2_4 Cu1_3 1_555 1_555
I3_4 Cu2_3 1_555 1_555
Cu2_3 I1_3 1_555 1_555
Cu3_4 I2_4 1_555 1_555
Cu4_2 I1_3 1_555 1_555
N9_3 Cu2_3 1_555 1_555
N10_2 Cu4_2 1_555 1_555
I2_4 Cu2_3 1_555 1_555
I3_4 Cu3_4 1_555 1_555
I3_4 Cu4_2 1_555 1_555
N1_3 C1_3 1_555 1_555
N2_3 C12_3 1_555 1_555
N4_3 C2_3 1_555 1_555
N5_4 C4_4 1_555 1_555
N6_3 C9_3 1_555 1_555
C1_3 H1_3 1_555 1_555
C2_3 N1_3 1_555 1_555
H2_4 C2_3 1_555 1_555
N7_3 C6_3 1_555 1_555
N8_3 C3_3 1_555 1_555
C4_4 H4_4 1_555 1_555
C5_3 N4_3 1_555 1_555
H5_3 C5_3 1_555 1_555
C6_3 H6_3 1_555 1_555
C7_3 N4_3 1_555 1_555
H7_2 C7_3 1_555 1_555
H8_3 C7_3 1_555 1_555
C8_3 N5_4 1_555 1_555
H9_3 C8_3 1_555 1_555
H10_4 C8_3 1_555 1_555
C9_3 N8_3 1_555 1_555
H11_3 C9_3 1_555 1_555
C10_4 N3_4 1_555 1_555
C11_4 N3_4 1_555 1_555
H13_4 C11_4 1_555 1_555
C12_3 C6_3 1_555 1_555
H14_3 C12_3 1_555 1_555
C13_4 N2_3 1_555 1_555
H15_3 C13_4 1_555 1_555
C14_3 N6_3 1_555 1_555
H16_3 C14_3 1_555 1_555
Cu5_3 N2_3 1_555 1_555
Cu6_3 N6_3 1_555 1_555
N5_4 C10_4 1_555 1_555
C1_3 C5_3 1_555 1_555
N7_3 C7_3 1_555 1_555
N7_3 C13_4 1_555 1_555
N8_3 C8_3 1_555 1_555
C3_3 C14_3 1_555 1_555
C4_4 C11_4 1_555 1_555
I1_4 Cu1_4 1_555 1_555
I2_5 Cu1_4 1_555 1_555
I3_5 Cu5_3 1_555 1_555
I4_4 Cu1_4 1_555 1_555
Cu1_4 N1_4 1_555 1_555
Cu5_3 I1_4 1_555 1_555
Cu3_5 I2_5 1_555 1_555
Cu4_3 I1_4 1_555 1_555
N1_4 C1_4 1_555 1_555
N3_5 Cu3_5 1_555 1_555
N4_4 C2_4 1_555 1_555
N5_5 C4_5 1_555 1_555
N10 C9_4 1_555 1_555
C1_4 H1_4 1_555 1_555
C2_4 N1_4 1_555 1_555
H2_5 C2_4 1_555 1_555
N8_4 C3_4 1_555 1_555
C3_4 H3_4 1_555 1_555
C4_5 H4_5 1_555 1_555
C5_4 N4_4 1_555 1_555
H5_4 C5_4 1_555 1_555
C7_4 N4_4 1_555 1_555
H7_3 C7_4 1_555 1_555
H8_4 C7_4 1_555 1_555
C8_4 N5_5 1_555 1_555
H9_4 C8_4 1_555 1_555
H10_5 C8_4 1_555 1_555
C9_4 N8_4 1_555 1_555
H11_4 C9_4 1_555 1_555
C10_5 N3_5 1_555 1_555
H12_5 C10_5 1_555 1_555
C11_5 N3_5 1_555 1_555
H13_5 C11_5 1_555 1_555
C14_4 N10 1_555 1_555
H16_4 C14_4 1_555 1_555
N10_3 Cu4_3 1_555 1_555
I2_5 Cu5_3 1_555 1_555
I3_5 Cu3_5 1_555 1_555
I3_5 Cu4_3 1_555 1_555
I4_4 Cu3_5 1_555 1_555
I4_4 Cu4_3 1_555 1_555
N5_5 C10_5 1_555 1_555
C1_4 C5_4 1_555 1_555
N7_4 C7_4 1_555 1_555
N8_4 C8_4 1_555 1_555
C3_4 C14_4 1_555 1_555
C4_5 C11_5 1_555 1_555
N2_4 C12_4 1_555 1_555
C6_4 H6_4 1_555 1_555
C12_4 C6_4 1_555 1_555
H14_4 C12_4 1_555 1_555
C13_5 N2_4 1_555 1_555
H15_4 C13_5 1_555 1_555
Cu5_4 N2_4 1_555 1_555
I1_5 Cu1_5 1_555 1_555
I2_6 Cu1_5 1_555 1_555
I3_6 Cu5_2 1_555 1_555
I4_5 Cu1_5 1_555 1_555
Cu1_5 N1_5 1_555 1_555
Cu5_2 I1_5 1_555 1_555
Cu3_6 I2_6 1_555 1_555
Cu4_4 I1_5 1_555 1_555
N1_5 C1_5 1_555 1_555
N3_6 Cu3_6 1_555 1_555
N4_5 C2_5 1_555 1_555
N5_6 C4_6 1_555 1_555
N10_2 C9_5 1_555 1_555
C2_5 N1_5 1_555 1_555
H2_6 C2_5 1_555 1_555
N8_5 C3_5 1_555 1_555
C3_5 H3_5 1_555 1_555
C4_6 H4_6 1_555 1_555
C8_5 N5_6 1_555 1_555
H9_5 C8_5 1_555 1_555
H10_6 C8_5 1_555 1_555
C9_5 N8_5 1_555 1_555
H11_5 C9_5 1_555 1_555
C10_6 N3_6 1_555 1_555
H12_6 C10_6 1_555 1_555
C11_6 N3_6 1_555 1_555
H13_6 C11_6 1_555 1_555
C14_5 N10_2 1_555 1_555
H16_5 C14_5 1_555 1_555
N10_4 Cu4_4 1_555 1_555
I2_6 Cu5_2 1_555 1_555
I3_6 Cu3_6 1_555 1_555
I3_6 Cu4_4 1_555 1_555
I4_5 Cu3_6 1_555 1_555
I4_5 Cu4_4 1_555 1_555
N5_6 C10_6 1_555 1_555
N8_5 C8_5 1_555 1_555
C3_5 C14_5 1_555 1_555
C4_6 C11_6 1_555 1_555
C13_6 N2_5 1_555 1_555
H15_5 C13_6 1_555 1_555
Cu5_5 N2_5 1_555 1_555
I1_6 Cu1_6 1_555 1_555
I2_7 Cu1_6 1_555 1_555
I3_7 Cu5_5 1_555 1_555
I4_6 Cu1_6 1_555 1_555
Cu1_6 N1_6 1_555 1_555
Cu5_5 I1_6 1_555 1_555
Cu3_7 I2_7 1_555 1_555
Cu6_3 I1_6 1_555 1_555
N1_6 C1_6 1_555 1_555
N9_2 C12_5 1_555 1_555
N3_7 Cu3_7 1_555 1_555
N4_6 C2_6 1_555 1_555
N5_7 C4_7 1_555 1_555
N10_4 C9_6 1_555 1_555
C1_6 H1_5 1_555 1_555
C2_6 N1_6 1_555 1_555
H2_7 C2_6 1_555 1_555
N7_5 C6_5 1_555 1_555
N8_6 C3_6 1_555 1_555
C3_6 H3_6 1_555 1_555
C4_7 H4_7 1_555 1_555
C5_5 N4_6 1_555 1_555
H5_5 C5_5 1_555 1_555
C6_5 H6_5 1_555 1_555
C7_5 N4_6 1_555 1_555
C8_6 N5_7 1_555 1_555
H9_6 C8_6 1_555 1_555
H10_7 C8_6 1_555 1_555
C9_6 N8_6 1_555 1_555
H11_6 C9_6 1_555 1_555
C10_7 N3_7 1_555 1_555
H12_7 C10_7 1_555 1_555
C11_7 N3_7 1_555 1_555
H13_7 C11_7 1_555 1_555
C12_5 C6_5 1_555 1_555
H14_5 C12_5 1_555 1_555
C13_7 N9_2 1_555 1_555
C14_6 N10_4 1_555 1_555
H16_6 C14_6 1_555 1_555
I2_7 Cu5_5 1_555 1_555
I3_7 Cu3_7 1_555 1_555
I3_7 Cu6_3 1_555 1_555
I4_6 Cu3_7 1_555 1_555
I4_6 Cu6_3 1_555 1_555
N5_7 C10_7 1_555 1_555
C1_6 C5_5 1_555 1_555
N7_5 C7_5 1_555 1_555
N7_5 C13_7 1_555 1_555
N8_6 C8_6 1_555 1_555
C3_6 C14_6 1_555 1_555
C4_7 C11_7 1_555 1_555
I1_7 Cu1_7 1_555 1_555
I2_8 Cu1_7 1_555 1_555
I3_8 Cu5_4 1_555 1_555
I4_7 Cu1_7 1_555 1_555
Cu1_7 N1_7 1_555 1_555
Cu5_4 I1_7 1_555 1_555
Cu3_8 I2_8 1_555 1_555
Cu6_2 I1_7 1_555 1_555
N1_7 C1_7 1_555 1_555
N9_3 C12_6 1_555 1_555
N3_8 Cu3_8 1_555 1_555
N4_7 C2_7 1_555 1_555
N5_8 C4_8 1_555 1_555
C1_7 H1_6 1_555 1_555
C2_7 N1_7 1_555 1_555
H2_8 C2_7 1_555 1_555
N7_6 C6_6 1_555 1_555
C4_8 H4_8 1_555 1_555
C5_6 N4_7 1_555 1_555
H5_6 C5_6 1_555 1_555
C6_6 H6_6 1_555 1_555
C7_6 N4_7 1_555 1_555
H7_4 C7_6 1_555 1_555
H8_6 C7_6 1_555 1_555
C10_8 N3_8 1_555 1_555
H12_8 C10_8 1_555 1_555
C11_8 N3_8 1_555 1_555
H13_8 C11_8 1_555 1_555
C12_6 C6_6 1_555 1_555
H14_6 C12_6 1_555 1_555
C13_8 N9_3 1_555 1_555
H15_6 C13_8 1_555 1_555
I2_8 Cu5_4 1_555 1_555
I3_8 Cu3_8 1_555 1_555
I3_8 Cu6_2 1_555 1_555
I4_7 Cu3_8 1_555 1_555
I4_7 Cu6_2 1_555 1_555
N5_8 C10_8 1_555 1_555
C1_7 C5_6 1_555 1_555
N7_6 C7_6 1_555 1_555
N7_6 C13_8 1_555 1_555
C4_8 C11_8 1_555 1_555
N10_3 C9_7 1_555 1_555
N8_7 C3_7 1_555 1_555
C3_7 H3_7 1_555 1_555
H9_7 C8_7 1_555 1_555
C9_7 N8_7 1_555 1_555
H11_7 C9_7 1_555 1_555
C14_7 N10_3 1_555 1_555
H16_7 C14_7 1_555 1_555
N8_7 C8_7 1_555 1_555
C3_7 C14_7 1_555 1_555
I1_8 Cu1_8 1_555 1_555
Cu4_5 I1_8 1_555 1_555
N10_5 Cu4_5 1_555 1_555
N1_8 C1_8 1_555 1_555
N2_6 C12_7 1_555 1_555
N4_8 C2_8 1_555 1_555
C1_8 H1_7 1_555 1_555
C2_8 N1_8 1_555 1_555
N7_7 C6_7 1_555 1_555
C5_7 N4_8 1_555 1_555
H5_7 C5_7 1_555 1_555
C6_7 H6_7 1_555 1_555
C7_7 N4_8 1_555 1_555
H7_5 C7_7 1_555 1_555
C12_7 C6_7 1_555 1_555
H14_7 C12_7 1_555 1_555
C13_9 N2_6 1_555 1_555
H15_7 C13_9 1_555 1_555
Cu5_6 N2_6 1_555 1_555
C1_8 C5_7 1_555 1_555
N7_7 C7_7 1_555 1_555
N7_7 C13_9 1_555 1_555
I1_9 Cu1_9 1_555 1_555
I2_9 Cu1_9 1_555 1_555
I3_9 Cu5_6 1_555 1_555
I4_9 Cu1_9 1_555 1_555
Cu1_9 N1_9 1_555 1_555
Cu5_6 I1_9 1_555 1_555
Cu3_9 I2_9 1_555 1_555
Cu4_6 I1_9 1_555 1_555
N1_9 C1_9 1_555 1_555
N3_9 Cu3_9 1_555 1_555
N4_9 C2_9 1_555 1_555
N5_9 C4_9 1_555 1_555
N10_5 C9_8 1_555 1_555
C2_9 N1_9 1_555 1_555
H2_9 C2_9 1_555 1_555
N8_8 C3_8 1_555 1_555
C3_8 H3_8 1_555 1_555
C4_9 H4_9 1_555 1_555
C8_8 N5_9 1_555 1_555
H9_8 C8_8 1_555 1_555
H10_9 C8_8 1_555 1_555
C9_8 N8_8 1_555 1_555
H11_8 C9_8 1_555 1_555
C10_9 N3_9 1_555 1_555
H12_9 C10_9 1_555 1_555
C11_9 N3_9 1_555 1_555
H13_9 C11_9 1_555 1_555
C14_8 N10_5 1_555 1_555
H16_8 C14_8 1_555 1_555
N10_6 Cu4_6 1_555 1_555
I2_9 Cu5_6 1_555 1_555
I3_9 Cu3_9 1_555 1_555
I3_9 Cu4_6 1_555 1_555
I4_9 Cu3_9 1_555 1_555
I4_9 Cu4_6 1_555 1_555
N5_9 C10_9 1_555 1_555
N8_8 C8_8 1_555 1_555
C3_8 C14_8 1_555 1_555
C4_9 C11_9 1_555 1_555
N10_6 C9_9 1_555 1_555
N8_9 C3_9 1_555 1_555
C3_9 H3_9 1_555 1_555
H9_9 C8_9 1_555 1_555
C9_9 N8_9 1_555 1_555
H11_9 C9_9 1_555 1_555
C14_9 N10_6 1_555 1_555
H16_9 C14_9 1_555 1_555
N8_9 C8_9 1_555 1_555
C3_9 C14_9 1_555 1_555
I3_10 Cu2_4 1_555 1_555
Cu3_10 I2_10 1_555 1_555
N3_10 Cu3_10 1_555 1_555
N5_10 C4_10 1_555 1_555
N6_4 C9_10 1_555 1_555
N8_10 C3_10 1_555 1_555
C3_10 H3_10 1_555 1_555
C4_10 H4_10 1_555 1_555
C8_10 N5_10 1_555 1_555
H9_10 C8_10 1_555 1_555
H10_10 C8_10 1_555 1_555
C9_10 N8_10 1_555 1_555
H11_10 C9_10 1_555 1_555
C10_10 N3_10 1_555 1_555
H12_10 C10_10 1_555 1_555
C11_10 N3_10 1_555 1_555
H13_10 C11_10 1_555 1_555
C14_10 N6_4 1_555 1_555
H16_10 C14_10 1_555 1_555
Cu6_4 N6_4 1_555 1_555
N9_4 Cu2_4 1_555 1_555
I2_10 Cu2_4 1_555 1_555
I3_10 Cu3_10 1_555 1_555
N5_10 C10_10 1_555 1_555
N8_10 C8_10 1_555 1_555
C3_10 C14_10 1_555 1_555
C4_10 C11_10 1_555 1_555
I1_10 Cu1_10 1_555 1_555
I2_11 Cu1_10 1_555 1_555
I3_11 Cu2_5 1_555 1_555
I4_10 Cu1_10 1_555 1_555
Cu1_10 N1_10 1_555 1_555
Cu2_5 I1_10 1_555 1_555
Cu3_11 I2_11 1_555 1_555
Cu4_7 I1_10 1_555 1_555
N1_10 C1_10 1_555 1_555
N2_7 C12_8 1_555 1_555
N3_11 Cu3_11 1_555 1_555
N4_10 C2_10 1_555 1_555
N5_11 C4_11 1_555 1_555
N6_5 C9_11 1_555 1_555
C1_10 H1_8 1_555 1_555
C2_10 N1_10 1_555 1_555
H2_11 C2_10 1_555 1_555
N7_8 C6_8 1_555 1_555
N8_11 C3_11 1_555 1_555
C3_11 H3_11 1_555 1_555
C4_11 H4_11 1_555 1_555
C5_8 N4_10 1_555 1_555
H5_8 C5_8 1_555 1_555
C6_8 H6_8 1_555 1_555
C7_8 N4_10 1_555 1_555
H7_6 C7_8 1_555 1_555
H8_9 C7_8 1_555 1_555
C8_11 N5_11 1_555 1_555
H9_11 C8_11 1_555 1_555
H10_11 C8_11 1_555 1_555
C9_11 N8_11 1_555 1_555
H11_11 C9_11 1_555 1_555
C10_11 N3_11 1_555 1_555
H12_11 C10_11 1_555 1_555
C11_11 N3_11 1_555 1_555
H13_11 C11_11 1_555 1_555
C12_8 C6_8 1_555 1_555
H14_8 C12_8 1_555 1_555
C13_10 N2_7 1_555 1_555
H15_8 C13_10 1_555 1_555
C14_11 N6_5 1_555 1_555
H16_11 C14_11 1_555 1_555
Cu6_5 N6_5 1_555 1_555
N9_5 Cu2_5 1_555 1_555
N10_7 Cu4_7 1_555 1_555
I2_11 Cu2_5 1_555 1_555
I3_11 Cu3_11 1_555 1_555
I3_11 Cu4_7 1_555 1_555
I4_10 Cu3_11 1_555 1_555
I4_10 Cu4_7 1_555 1_555
N5_11 C10_11 1_555 1_555
C1_10 C5_8 1_555 1_555
N7_8 C7_8 1_555 1_555
N7_8 C13_10 1_555 1_555
N8_11 C8_11 1_555 1_555
C3_11 C14_11 1_555 1_555
C4_11 C11_11 1_555 1_555
I1_11 Cu1_11 1_555 1_555
I4_11 Cu1_11 1_555 1_555
Cu1_11 N1_11 1_555 1_555
Cu4_8 I1_11 1_555 1_555
N1_11 C1_11 1_555 1_555
N2_8 C12_9 1_555 1_555
N4_11 C2_11 1_555 1_555
C1_11 H1_9 1_555 1_555
C2_11 N1_11 1_555 1_555
N7_9 C6_9 1_555 1_555
C5_9 N4_11 1_555 1_555
H5_9 C5_9 1_555 1_555
C6_9 H6_9 1_555 1_555
C7_9 N4_11 1_555 1_555
H7_7 C7_9 1_555 1_555
C12_9 C6_9 1_555 1_555
H14_9 C12_9 1_555 1_555
C13_11 N2_8 1_555 1_555
H15_9 C13_11 1_555 1_555
N10_8 Cu4_8 1_555 1_555
I4_11 Cu4_8 1_555 1_555
C1_11 C5_9 1_555 1_555
N7_9 C7_9 1_555 1_555
N7_9 C13_11 1_555 1_555
I1_12 Cu1_12 1_555 1_555
I2_12 Cu1_12 1_555 1_555
I4_12 Cu1_12 1_555 1_555
Cu1_12 N1_12 1_555 1_555
Cu5_8 I1_12 1_555 1_555
Cu3_12 I2_12 1_555 1_555
Cu4_9 I1_12 1_555 1_555
N1_12 C1_12 1_555 1_555
N3_12 Cu3_12 1_555 1_555
N4_12 C2_12 1_555 1_555
N5_12 C4_12 1_555 1_555
N10_7 C9_12 1_555 1_555
C2_12 N1_12 1_555 1_555
H2_12 C2_12 1_555 1_555
N8_12 C3_12 1_555 1_555
C3_12 H3_12 1_555 1_555
C4_12 H4_12 1_555 1_555
C6_10 H6_10 1_555 1_555
C8_12 N5_12 1_555 1_555
H9_12 C8_12 1_555 1_555
H10_12 C8_12 1_555 1_555
C9_12 N8_12 1_555 1_555
H11_12 C9_12 1_555 1_555
C10_12 N3_12 1_555 1_555
H12_12 C10_12 1_555 1_555
C11_12 N3_12 1_555 1_555
H13_12 C11_12 1_555 1_555
C12_10 C6_10 1_555 1_555
H14_10 C12_10 1_555 1_555
C14_12 N10_7 1_555 1_555
H16_12 C14_12 1_555 1_555
I2_12 Cu5_8 1_555 1_555
I4_12 Cu3_12 1_555 1_555
I4_12 Cu4_9 1_555 1_555
N5_12 C10_12 1_555 1_555
N8_12 C8_12 1_555 1_555
C3_12 C14_12 1_555 1_555
C4_12 C11_12 1_555 1_555
H5_10 C5_10 1_555 1_555
H7_8 C7_10 1_555 1_555
C13_12 N2_9 1_555 1_555
H15_10 C13_12 1_555 1_555
Cu5_9 N2_9 1_555 1_555
N7_10 C7_10 1_555 1_555
N7_10 C13_12 1_555 1_555
H5_11 C5_11 1_555 1_555
H7_9 C7_11 1_555 1_555
C13_13 N2_10 1_555 1_555
H15_11 C13_13 1_555 1_555
Cu5_10 N2_10 1_555 1_555
N7_11 C7_11 1_555 1_555
N7_11 C13_13 1_555 1_555
I1_13 Cu1_13 1_555 1_555
I2_13 Cu1_13 1_555 1_555
I4_13 Cu1_13 1_555 1_555
Cu1_13 N1_13 1_555 1_555
Cu5_7 I1_13 1_555 1_555
Cu3_13 I2_13 1_555 1_555
Cu4_10 I1_13 1_555 1_555
N1_13 C1_13 1_555 1_555
N3_13 Cu3_13 1_555 1_555
N4_13 C2_13 1_555 1_555
N5_13 C4_13 1_555 1_555
N10_8 C9_13 1_555 1_555
C2_13 N1_13 1_555 1_555
H2_13 C2_13 1_555 1_555
N8_13 C3_13 1_555 1_555
C3_13 H3_13 1_555 1_555
C4_13 H4_13 1_555 1_555
C6_11 H6_11 1_555 1_555
C8_13 N5_13 1_555 1_555
H9_13 C8_13 1_555 1_555
H10_13 C8_13 1_555 1_555
C9_13 N8_13 1_555 1_555
H11_13 C9_13 1_555 1_555
C10_13 N3_13 1_555 1_555
H12_13 C10_13 1_555 1_555
C11_13 N3_13 1_555 1_555
H13_13 C11_13 1_555 1_555
C12_11 C6_11 1_555 1_555
H14_11 C12_11 1_555 1_555
C14_13 N10_8 1_555 1_555
H16_13 C14_13 1_555 1_555
I2_13 Cu5_7 1_555 1_555
I4_13 Cu3_13 1_555 1_555
I4_13 Cu4_10 1_555 1_555
N5_13 C10_13 1_555 1_555
N8_13 C8_13 1_555 1_555
C3_13 C14_13 1_555 1_555
C4_13 C11_13 1_555 1_555
N9_5 C12_12 1_555 1_555
N7_12 C6_12 1_555 1_555
C6_12 H6_12 1_555 1_555
C7_12 N4_14 1_555 1_555
H7_10 C7_12 1_555 1_555
H8_12 C7_12 1_555 1_555
C12_12 C6_12 1_555 1_555
H14_12 C12_12 1_555 1_555
C13_14 N9_5 1_555 1_555
H15_12 C13_14 1_555 1_555
N7_12 C7_12 1_555 1_555
N7_12 C13_14 1_555 1_555
I1_14 Cu1_14 1_555 1_555
I2_14 Cu1_14 1_555 1_555
I3_14 Cu5_9 1_555 1_555
I4_14 Cu1_14 1_555 1_555
Cu1_14 N1_14 1_555 1_555
Cu5_9 I1_14 1_555 1_555
Cu3_14 I2_14 1_555 1_555
Cu6_4 I1_14 1_555 1_555
N1_14 C1_14 1_555 1_555
N3_14 Cu3_14 1_555 1_555
N5_14 C4_14 1_555 1_555
C1_14 H1_12 1_555 1_555
C2_14 N1_14 1_555 1_555
H2_14 C2_14 1_555 1_555
H5_12 C5_12 1_555 1_555
C10_14 N3_14 1_555 1_555
H12_14 C10_14 1_555 1_555
C11_14 N3_14 1_555 1_555
H13_14 C11_14 1_555 1_555
I2_14 Cu5_9 1_555 1_555
I3_14 Cu3_14 1_555 1_555
I3_14 Cu6_4 1_555 1_555
I4_14 Cu3_14 1_555 1_555
I4_14 Cu6_4 1_555 1_555
N5_14 C10_14 1_555 1_555
C1_14 C5_12 1_555 1_555
C4_14 C11_14 1_555 1_555
N10_10 C9_14 1_555 1_555
N8_14 C3_14 1_555 1_555
C3_14 H3_14 1_555 1_555
H9_14 C8_14 1_555 1_555
C9_14 N8_14 1_555 1_555
C14_14 N10_10 1_555 1_555
H16_14 C14_14 1_555 1_555
N8_14 C8_14 1_555 1_555
C3_14 C14_14 1_555 1_555
I1_15 Cu1_15 1_555 1_555
I2_15 Cu1_15 1_555 1_555
I3_15 Cu5_10 1_555 1_555
I4_15 Cu1_15 1_555 1_555
Cu1_15 N1_15 1_555 1_555
Cu5_10 I1_15 1_555 1_555
Cu3_15 I2_15 1_555 1_555
Cu6_5 I1_15 1_555 1_555
N1_15 C1_15 1_555 1_555
N3_15 Cu3_15 1_555 1_555
N5_15 C4_15 1_555 1_555
N10_9 C9_15 1_555 1_555
C1_15 H1_13 1_555 1_555
C2_15 N1_15 1_555 1_555
H2_15 C2_15 1_555 1_555
N8_15 C3_15 1_555 1_555
C3_15 H3_15 1_555 1_555
H5_13 C5_13 1_555 1_555
C8_15 N5_15 1_555 1_555
H9_15 C8_15 1_555 1_555
H10_15 C8_15 1_555 1_555
C9_15 N8_15 1_555 1_555
C10_15 N3_15 1_555 1_555
H12_15 C10_15 1_555 1_555
C11_15 N3_15 1_555 1_555
H13_15 C11_15 1_555 1_555
C14_15 N10_9 1_555 1_555
H16_15 C14_15 1_555 1_555
I2_15 Cu5_10 1_555 1_555
I3_15 Cu3_15 1_555 1_555
I3_15 Cu6_5 1_555 1_555
I4_15 Cu3_15 1_555 1_555
I4_15 Cu6_5 1_555 1_555
N5_15 C10_15 1_555 1_555
C1_15 C5_13 1_555 1_555
N8_15 C8_15 1_555 1_555
C3_15 C14_15 1_555 1_555
C4_15 C11_15 1_555 1_555
N9_4 C12_13 1_555 1_555
N7_13 C6_13 1_555 1_555
C6_13 H6_13 1_555 1_555
C7_13 N4_15 1_555 1_555
C12_13 C6_13 1_555 1_555
H14_13 C12_13 1_555 1_555
C13_15 N9_4 1_555 1_555
N7_13 C7_13 1_555 1_555
N7_13 C13_15 1_555 1_555
I1_16 Cu1_16 1_555 1_555
I4_16 Cu1_16 1_555 1_555
Cu1_16 N1_16 1_555 1_555
Cu4_11 I1_16 1_555 1_555
N1_16 C1_16 1_555 1_555
N2_11 C12_14 1_555 1_555
N4_16 C2_16 1_555 1_555
C1_16 H1_14 1_555 1_555
C2_16 N1_16 1_555 1_555
N7_14 C6_14 1_555 1_555
C5_14 N4_16 1_555 1_555
H5_14 C5_14 1_555 1_555
C6_14 H6_14 1_555 1_555
C7_14 N4_16 1_555 1_555
H7_11 C7_14 1_555 1_555
C12_14 C6_14 1_555 1_555
H14_14 C12_14 1_555 1_555
C13_16 N2_11 1_555 1_555
H15_13 C13_16 1_555 1_555
N10_11 Cu4_11 1_555 1_555
I4_16 Cu4_11 1_555 1_555
C1_16 C5_14 1_555 1_555
N7_14 C7_14 1_555 1_555
N7_14 C13_16 1_555 1_555
I3_16 Cu2_6 1_555 1_555
Cu3_16 I2_16 1_555 1_555
N3_16 Cu3_16 1_555 1_555
N5_16 C4_16 1_555 1_555
N6_6 C9_16 1_555 1_555
N8_16 C3_16 1_555 1_555
C3_16 H3_16 1_555 1_555
C4_16 H4_16 1_555 1_555
C8_16 N5_16 1_555 1_555
H9_16 C8_16 1_555 1_555
H10_16 C8_16 1_555 1_555
C9_16 N8_16 1_555 1_555
H11_16 C9_16 1_555 1_555
C10_16 N3_16 1_555 1_555
H12_16 C10_16 1_555 1_555
C11_16 N3_16 1_555 1_555
H13_16 C11_16 1_555 1_555
C14_16 N6_6 1_555 1_555
H16_16 C14_16 1_555 1_555
Cu6_6 N6_6 1_555 1_555
N9_6 Cu2_6 1_555 1_555
I2_16 Cu2_6 1_555 1_555
I3_16 Cu3_16 1_555 1_555
N5_16 C10_16 1_555 1_555
N8_16 C8_16 1_555 1_555
C3_16 C14_16 1_555 1_555
C4_16 C11_16 1_555 1_555
I1_17 Cu1_17 1_555 1_555
I2_17 Cu1_17 1_555 1_555
I4_17 Cu1_17 1_555 1_555
Cu1_17 N1_17 1_555 1_555
Cu5_11 I1_17 1_555 1_555
Cu3_17 I2_17 1_555 1_555
Cu4_12 I1_17 1_555 1_555
N1_17 C1_17 1_555 1_555
N2_12 C12_15 1_555 1_555
N3_17 Cu3_17 1_555 1_555
N4_17 C2_17 1_555 1_555
N5_17 C4_17 1_555 1_555
N10_11 C9_17 1_555 1_555
C1_17 H1_15 1_555 1_555
C2_17 N1_17 1_555 1_555
H2_17 C2_17 1_555 1_555
N7_15 C6_15 1_555 1_555
N8_17 C3_17 1_555 1_555
C3_17 H3_17 1_555 1_555
C4_17 H4_17 1_555 1_555
C5_15 N4_17 1_555 1_555
H5_15 C5_15 1_555 1_555
C6_15 H6_15 1_555 1_555
C7_15 N4_17 1_555 1_555
H7_12 C7_15 1_555 1_555
H8_14 C7_15 1_555 1_555
C8_17 N5_17 1_555 1_555
H9_17 C8_17 1_555 1_555
H10_17 C8_17 1_555 1_555
C9_17 N8_17 1_555 1_555
H11_17 C9_17 1_555 1_555
C10_17 N3_17 1_555 1_555
H12_17 C10_17 1_555 1_555
C11_17 N3_17 1_555 1_555
H13_17 C11_17 1_555 1_555
C12_15 C6_15 1_555 1_555
H14_15 C12_15 1_555 1_555
C13_17 N2_12 1_555 1_555
H15_14 C13_17 1_555 1_555
C14_17 N10_11 1_555 1_555
H16_17 C14_17 1_555 1_555
Cu5_12 N2_12 1_555 1_555
I2_17 Cu5_11 1_555 1_555
I4_17 Cu3_17 1_555 1_555
I4_17 Cu4_12 1_555 1_555
N5_17 C10_17 1_555 1_555
C1_17 C5_15 1_555 1_555
N7_15 C7_15 1_555 1_555
N7_15 C13_17 1_555 1_555
N8_17 C8_17 1_555 1_555
C3_17 C14_17 1_555 1_555
C4_17 C11_17 1_555 1_555
N10_12 C9_18 1_555 1_555
N8_18 C3_18 1_555 1_555
C3_18 H3_18 1_555 1_555
H9_18 C8_18 1_555 1_555
C9_18 N8_18 1_555 1_555
C14_18 N10_12 1_555 1_555
H16_18 C14_18 1_555 1_555
N8_18 C8_18 1_555 1_555
C3_18 C14_18 1_555 1_555
I1_18 Cu1_18 1_555 1_555
I2_18 Cu1_18 1_555 1_555
I3_18 Cu5_12 1_555 1_555
I4_18 Cu1_18 1_555 1_555
Cu1_18 N1_18 1_555 1_555
Cu5_12 I1_18 1_555 1_555
Cu3_18 I2_18 1_555 1_555
Cu6_6 I1_18 1_555 1_555
N1_18 C1_18 1_555 1_555
N3_18 Cu3_18 1_555 1_555
N5_18 C4_18 1_555 1_555
C1_18 H1_16 1_555 1_555
C2_18 N1_18 1_555 1_555
H2_18 C2_18 1_555 1_555
H5_16 C5_16 1_555 1_555
C10_18 N3_18 1_555 1_555
H12_18 C10_18 1_555 1_555
C11_18 N3_18 1_555 1_555
H13_18 C11_18 1_555 1_555
I2_18 Cu5_12 1_555 1_555
I3_18 Cu3_18 1_555 1_555
I3_18 Cu6_6 1_555 1_555
I4_18 Cu3_18 1_555 1_555
I4_18 Cu6_6 1_555 1_555
N5_18 C10_18 1_555 1_555
C1_18 C5_16 1_555 1_555
C4_18 C11_18 1_555 1_555
N9_6 C12_16 1_555 1_555
N7_16 C6_16 1_555 1_555
C6_16 H6_16 1_555 1_555
C7_16 N4_18 1_555 1_555
C12_16 C6_16 1_555 1_555
H14_16 C12_16 1_555 1_555
C13_18 N9_6 1_555 1_555
N7_16 C7_16 1_555 1_555
N7_16 C13_18 1_555 1_555
H5_17 C5_17 1_555 1_555
H7_13 C7_17 1_555 1_555
N7_17 C7_17 1_555 1_555
C6_17 H6_17 1_555 1_555
C12_17 C6_17 1_555 1_555
H14_17 C12_17 1_555 1_555
C6_18 H6_18 1_555 1_555
C12_18 C6_18 1_555 1_555
H14_18 C12_18 1_555 1_555
H5_18 C5_18 1_555 1_555
H7_14 C7_18 1_555 1_555
N7_18 C7_18 1_555 1_555

#END
