
###############################################################################
#
# This file contains modified crystal structure data generated from the
# MOF subset of the Cambridge Structural Database (CSD) v543 
# hosted by the Cambridge Crystallographic Data Centre (CCDC).
#
# This work is licensed under the Creative Commons
# Attribution-NonCommercial-ShareAlike 4.0 International License.
# To view a copy of this license, visit
# http://creativecommons.org/licenses/by-nc-sa/4.0/
# or send a letter to
# Creative Commons, PO Box 1866, Mountain View, CA 94042, USA.
#
# CIF created using the CSD Python API on 29 September 2022
# The structure has been converted into the P1 space group
# The structure has a 3D framework
# The original CSD entry ZUYSAQ is in the monoclinic crystal system
# The framework has been calculated to contain at least 10.0% void space
# The void calculation uses a probe of radius 1.32A, grid spacing 0.4
#
###############################################################################

data_ZUYSAQ
_chemical_formula_moiety         '(C232 H184 Gd8 O56)n'
_symmetry_cell_setting           triclinic
_symmetry_space_group_name_H-M   'P 1'
_symmetry_Int_Tables_number      1
_space_group_name_Hall           'P 1'
loop_
_symmetry_equiv_pos_site_id
_symmetry_equiv_pos_as_xyz
1 x,y,z
_cell_length_a                   31.8372(8)
_cell_length_b                   14.2387(4)
_cell_length_c                   19.3505(6)
_cell_angle_alpha                90
_cell_angle_beta                 97.446(2)
_cell_angle_gamma                90
_cell_volume                     8698.01
loop_
_atom_site_label
_atom_site_type_symbol
_atom_site_fract_x
_atom_site_fract_y
_atom_site_fract_z
Gd5 Gd 0.44316(2) 0.05398(2) 0.00994(2)
O1 O 0.43971(10) 0.0605(2) 0.42198(18)
O2 O 0.50203(10) 0.1287(3) 0.4162(2)
O3 O 0.11950(9) 0.4135(2) 0.07588(17)
O5 O 0.48644(10) 0.9283(2) 0.05192(16)
O6 O 0.53720(11) 0.8231(3) 0.0634(3)
H2 H 0.431069 0.013840 0.603604
C1 C 0.46260(14) 0.1232(3) 0.4012(2)
C2 C 0.44138(14) 0.1977(3) 0.3543(2)
C3 C 0.39838(16) 0.2062(4) 0.3433(3)
H3 H 0.381707 0.163474 0.363804
C4 C 0.37923(16) 0.2771(4) 0.3023(3)
H4 H 0.349869 0.282249 0.296861
C5 C 0.40227(13) 0.3405(3) 0.2690(2)
C6 C 0.44549(16) 0.3267(5) 0.2750(4)
H5 H 0.461920 0.364618 0.250013
C7 C 0.46468(16) 0.2566(5) 0.3182(3)
H6 H 0.493951 0.249604 0.322649
C8 C 0.38208(13) 0.4168(3) 0.2233(2)
C9 C 0.33960(13) 0.4133(3) 0.1955(2)
H7 H 0.322939 0.363635 0.207235
C10 C 0.32148(13) 0.4828(3) 0.1505(2)
C11 C 0.34695(14) 0.5557(3) 0.1316(3)
H8 H 0.335292 0.601261 0.100423
C12 C 0.38970(14) 0.5612(3) 0.1587(3)
C13 C 0.40624(14) 0.4921(3) 0.2052(3)
H9 H 0.434436 0.496314 0.224778
C14 C 0.27582(12) 0.4790(3) 0.1227(2)
C15 C 0.24652(14) 0.4446(3) 0.1639(2)
H10 H 0.255677 0.424114 0.209000
C16 C 0.20353(14) 0.4404(3) 0.1382(2)
H11 H 0.184350 0.416482 0.166024
C17 C 0.18927(13) 0.4715(3) 0.0720(2)
C18 C 0.21810(14) 0.5063(4) 0.0305(3)
C19 C 0.26089(14) 0.5095(4) 0.0558(3)
H13 H 0.279979 0.532438 0.027366
C20 C 0.14332(12) 0.4638(3) 0.0441(2)
C21 C 0.41770(14) 0.6361(3) 0.1369(3)
C22 C 0.40123(14) 0.7226(3) 0.1122(3)
H14 H 0.372335 0.734030 0.110205
C23 C 0.42747(15) 0.7918(3) 0.0908(3)
H15 H 0.416008 0.848603 0.073781
C24 C 0.47068(15) 0.7763(4) 0.0947(3)
C25 C 0.48692(17) 0.6890(5) 0.1173(4)
H16 H 0.515739 0.677149 0.118556
C26 C 0.46081(17) 0.6202(4) 0.1376(4)
H17 H 0.472171 0.562247 0.152093
C27 C 0.49972(14) 0.8462(3) 0.0694(3)
H23 H 0.458032 0.043990 0.705297
Gd4 Gd 0.55684(2) 0.05398(2) 0.49006(2)
O11 O 0.37095(9) 0.0059(2) 0.51181(16)
O13 O 0.48644(10) 0.0717(2) 0.55192(16)
O4 O 0.12905(9) 0.5059(2) 0.98819(16)
H12 H 0.208732 0.527636 0.985689
Gd2 Gd 0.55684(2) 0.94602(2) 0.99006(2)
Gd3 Gd 0.05684(2) 0.44602(2) 0.99006(2)
Gd1 Gd 0.44316(2) 0.94602(2) 0.50994(2)
O7 O 0.40886(13) 0.8005(3) 0.5422(3)
H1 H 0.4087(14) 0.767(3) 0.4990(18)
O8 O 0.42722(12) 0.9702(3) 0.62968(19)
C28 C 0.4043(4) 0.7564(7) 0.6045(6)
H18 H 0.380427 0.714688 0.597826
H19 H 0.399857 0.802724 0.638876
H20 H 0.429466 0.721164 0.620123
C29 C 0.4552(2) 0.9789(9) 0.6925(4)
H21 H 0.482489 0.954179 0.685934
H22 H 0.444178 0.944576 0.728824
O9 O 0.49797(10) 0.8713(3) 0.5838(2)
O10 O 0.38050(9) 0.9135(2) 0.42412(17)
O12 O 0.51356(10) 0.9283(2) 0.44808(16)
O14 O 0.46280(11) 0.8231(3) 0.4366(3)
O1_2 O 0.56029(10) 0.0605(2) 0.07802(18)
O2_2 O 0.49797(10) 0.1287(3) 0.0838(2)
O3_2 O 0.88050(9) 0.4135(2) 0.42412(17)
O4_2 O 0.87095(9) 0.5059(2) 0.51181(16)
C1_2 C 0.53740(14) 0.1232(3) 0.0988(2)
C2_2 C 0.55862(14) 0.1977(3) 0.1457(2)
C3_2 C 0.60162(16) 0.2062(4) 0.1567(3)
H3_2 H 0.618293 0.163474 0.136196
C4_2 C 0.62077(16) 0.2771(4) 0.1977(3)
H4_2 H 0.650131 0.282249 0.203139
C5_2 C 0.59773(13) 0.3405(3) 0.2310(2)
C6_2 C 0.55451(16) 0.3267(5) 0.2250(4)
H5_2 H 0.538080 0.364618 0.249987
C7_2 C 0.53532(16) 0.2566(5) 0.1818(3)
H6_2 H 0.506049 0.249604 0.177351
C8_2 C 0.61792(13) 0.4168(3) 0.2767(2)
C9_2 C 0.66040(13) 0.4133(3) 0.3045(2)
H7_2 H 0.677061 0.363635 0.292765
C10_2 C 0.67852(13) 0.4828(3) 0.3495(2)
C11_2 C 0.65305(14) 0.5557(3) 0.3684(3)
H8_2 H 0.664708 0.601261 0.399577
C12_2 C 0.61030(14) 0.5612(3) 0.3413(3)
C13_2 C 0.59376(14) 0.4921(3) 0.2948(3)
H9_2 H 0.565564 0.496314 0.275222
C14_2 C 0.72418(12) 0.4790(3) 0.3773(2)
C15_2 C 0.75348(14) 0.4446(3) 0.3361(2)
H10_2 H 0.744323 0.424114 0.291000
C16_2 C 0.79647(14) 0.4404(3) 0.3618(2)
H11_2 H 0.815650 0.416482 0.333976
C17_2 C 0.81073(13) 0.4715(3) 0.4280(2)
C18_2 C 0.78190(14) 0.5063(4) 0.4695(3)
H12_2 H 0.791268 0.527636 0.514311
C19_2 C 0.73911(14) 0.5095(4) 0.4442(3)
H13_2 H 0.720021 0.532438 0.472634
C20_2 C 0.85668(12) 0.4638(3) 0.4559(2)
C21_2 C 0.58230(14) 0.6361(3) 0.3631(3)
C22_2 C 0.59877(14) 0.7226(3) 0.3878(3)
H14_2 H 0.627665 0.734030 0.389795
C23_2 C 0.57253(15) 0.7918(3) 0.4092(3)
H15_2 H 0.583992 0.848603 0.426219
C24_2 C 0.52932(15) 0.7763(4) 0.4053(3)
C25_2 C 0.51308(17) 0.6890(5) 0.3827(4)
H16_2 H 0.484261 0.677149 0.381444
C26_2 C 0.53919(17) 0.6202(4) 0.3624(4)
H17_2 H 0.527829 0.562247 0.347907
C27_2 C 0.50028(14) 0.8462(3) 0.4306(3)
Gd3_2 Gd 0.94316(2) 0.44602(2) 0.50994(2)
H2_2 H 0.568931 0.013840 0.896396
H23_2 H 0.541968 0.043990 0.794703
O11_2 O 0.62905(9) 0.0059(2) 0.98819(16)
O13_2 O 0.51356(10) 0.0717(2) 0.94808(16)
H1_2 H 0.5913(14) 0.767(3) 0.0010(18)
O10_2 O 0.61950(9) 0.9135(2) 0.07588(17)
O7_2 O 0.59114(13) 0.8005(3) 0.9578(3)
O8_2 O 0.57278(12) 0.9702(3) 0.87032(19)
C28_2 C 0.5957(4) 0.7564(7) 0.8955(6)
H18_2 H 0.619573 0.714688 0.902174
H19_2 H 0.600143 0.802724 0.861124
H20_2 H 0.570534 0.721164 0.879877
C29_2 C 0.5448(2) 0.9789(9) 0.8075(4)
H21_2 H 0.517511 0.954179 0.814066
H22_2 H 0.555822 0.944576 0.771176
O9_2 O 0.50203(10) 0.8713(3) 0.9162(2)
O6_2 O 0.03720(11) 0.3231(3) 0.0634(3)
H16_3 H 0.015739 0.177149 0.118556
O2_3 O 0.00203(10) 0.6287(3) 0.4162(2)
Gd4_2 Gd 0.05684(2) 0.55398(2) 0.49006(2)
O12_2 O 0.01356(10) 0.4283(2) 0.44808(16)
O5_2 O 0.98644(10) 0.4283(2) 0.05192(16)
C11_3 C 0.84695(14) 0.0557(3) 0.1316(3)
H8_3 H 0.835292 0.101261 0.100423
C12_3 C 0.88970(14) 0.0612(3) 0.1587(3)
C18_3 C 0.71810(14) 0.0063(4) 0.0305(3)
C19_3 C 0.76089(14) 0.0095(4) 0.0558(3)
H13_3 H 0.779979 0.032438 0.027366
C21_3 C 0.91770(14) 0.1361(3) 0.1369(3)
C22_3 C 0.90123(14) 0.2226(3) 0.1122(3)
H14_3 H 0.872335 0.234030 0.110205
C23_3 C 0.92747(15) 0.2918(3) 0.0908(3)
H15_3 H 0.916008 0.348603 0.073781
C24_3 C 0.97068(15) 0.2763(4) 0.0947(3)
C25_3 C 0.98692(17) 0.1890(5) 0.1173(4)
C26_3 C 0.96081(17) 0.1202(4) 0.1376(4)
H17_3 H 0.972171 0.062247 0.152093
C27_3 C 0.99972(14) 0.3462(3) 0.0694(3)
Gd5_2 Gd 0.94316(2) 0.55398(2) 0.00994(2)
H12_3 H 0.708732 0.027636 0.985689
O1_3 O 0.93971(10) 0.5605(2) 0.42198(18)
O7_3 O 0.90886(13) 0.3005(3) 0.5422(3)
H1_3 H 0.9087(14) 0.267(3) 0.4990(18)
O8_3 O 0.92722(12) 0.4702(3) 0.62968(19)
H2_3 H 0.931069 0.513840 0.603604
C1_3 C 0.96260(14) 0.6232(3) 0.4012(2)
C2_3 C 0.94138(14) 0.6977(3) 0.3543(2)
C3_3 C 0.89838(16) 0.7062(4) 0.3433(3)
H3_3 H 0.881707 0.663474 0.363804
C4_3 C 0.87923(16) 0.7771(4) 0.3023(3)
H4_3 H 0.849869 0.782249 0.296861
C5_3 C 0.90227(13) 0.8405(3) 0.2690(2)
C6_3 C 0.94549(16) 0.8267(5) 0.2750(4)
H5_3 H 0.961920 0.864618 0.250013
C7_3 C 0.96468(16) 0.7566(5) 0.3182(3)
H6_3 H 0.993951 0.749604 0.322649
C8_3 C 0.88208(13) 0.9168(3) 0.2233(2)
C9_3 C 0.83960(13) 0.9133(3) 0.1955(2)
H7_3 H 0.822939 0.863635 0.207235
C10_3 C 0.82148(13) 0.9828(3) 0.1505(2)
C13_3 C 0.90624(14) 0.9921(3) 0.2052(3)
H9_3 H 0.934436 0.996314 0.224778
C14_3 C 0.77582(12) 0.9790(3) 0.1227(2)
C15_3 C 0.74652(14) 0.9446(3) 0.1639(2)
H10_3 H 0.755677 0.924114 0.209000
C16_3 C 0.70353(14) 0.9404(3) 0.1382(2)
H11_3 H 0.684350 0.916482 0.166024
C17_3 C 0.68927(13) 0.9715(3) 0.0720(2)
C20_3 C 0.64332(12) 0.9638(3) 0.0441(2)
C28_3 C 0.9043(4) 0.2564(7) 0.6045(6)
H18_3 H 0.880427 0.214688 0.597826
H19_3 H 0.899857 0.302724 0.638876
H20_3 H 0.929466 0.221164 0.620123
C29_3 C 0.9552(2) 0.4789(9) 0.6925(4)
H21_3 H 0.982489 0.454179 0.685934
H22_3 H 0.944178 0.444576 0.728824
H23_3 H 0.958032 0.543990 0.705297
O9_3 O 0.99797(10) 0.3713(3) 0.5838(2)
O13_3 O 0.98644(10) 0.5717(2) 0.55192(16)
O14_2 O 0.96280(11) 0.3231(3) 0.4366(3)
C11_4 C 0.15305(14) 0.0557(3) 0.3684(3)
H8_4 H 0.164708 0.101261 0.399577
C12_4 C 0.11030(14) 0.0612(3) 0.3413(3)
C18_4 C 0.28190(14) 0.0063(4) 0.4695(3)
H12_4 H 0.291268 0.027636 0.514311
C19_4 C 0.23911(14) 0.0095(4) 0.4442(3)
H13_4 H 0.220021 0.032438 0.472634
C21_4 C 0.08230(14) 0.1361(3) 0.3631(3)
C22_4 C 0.09877(14) 0.2226(3) 0.3878(3)
H14_4 H 0.127665 0.234030 0.389795
C23_4 C 0.07253(15) 0.2918(3) 0.4092(3)
H15_4 H 0.083992 0.348603 0.426219
C24_4 C 0.02932(15) 0.2763(4) 0.4053(3)
C25_4 C 0.01308(17) 0.1890(5) 0.3827(4)
C26_4 C 0.03919(17) 0.1202(4) 0.3624(4)
H17_4 H 0.027829 0.062247 0.347907
C27_4 C 0.00028(14) 0.3462(3) 0.4306(3)
O1_4 O 0.06029(10) 0.5605(2) 0.07802(18)
H1_4 H 0.0913(14) 0.267(3) 0.0010(18)
C1_4 C 0.03740(14) 0.6232(3) 0.0988(2)
C2_4 C 0.05862(14) 0.6977(3) 0.1457(2)
C3_4 C 0.10162(16) 0.7062(4) 0.1567(3)
H3_4 H 0.118293 0.663474 0.136196
C4_4 C 0.12077(16) 0.7771(4) 0.1977(3)
H4_4 H 0.150131 0.782249 0.203139
C5_4 C 0.09773(13) 0.8405(3) 0.2310(2)
C6_4 C 0.05451(16) 0.8267(5) 0.2250(4)
H5_4 H 0.038080 0.864618 0.249987
C7_4 C 0.03532(16) 0.7566(5) 0.1818(3)
H6_4 H 0.006049 0.749604 0.177351
C8_4 C 0.11792(13) 0.9168(3) 0.2767(2)
C9_4 C 0.16040(13) 0.9133(3) 0.3045(2)
H7_4 H 0.177061 0.863635 0.292765
C10_4 C 0.17852(13) 0.9828(3) 0.3495(2)
C13_4 C 0.09376(14) 0.9921(3) 0.2948(3)
H9_4 H 0.065564 0.996314 0.275222
C14_4 C 0.22418(12) 0.9790(3) 0.3773(2)
C15_4 C 0.25348(14) 0.9446(3) 0.3361(2)
H10_4 H 0.244323 0.924114 0.291000
C16_4 C 0.29647(14) 0.9404(3) 0.3618(2)
H11_4 H 0.315650 0.916482 0.333976
C17_4 C 0.31073(13) 0.9715(3) 0.4280(2)
C20_4 C 0.35668(12) 0.9638(3) 0.4559(2)
O7_4 O 0.09114(13) 0.3005(3) 0.9578(3)
O8_4 O 0.07278(12) 0.4702(3) 0.87032(19)
H2_4 H 0.068931 0.513840 0.896396
C28_4 C 0.0957(4) 0.2564(7) 0.8955(6)
H18_4 H 0.119573 0.214688 0.902174
H19_4 H 0.100143 0.302724 0.861124
H20_4 H 0.070534 0.221164 0.879877
C29_4 C 0.0448(2) 0.4789(9) 0.8075(4)
H21_4 H 0.017511 0.454179 0.814066
H22_4 H 0.055822 0.444576 0.771176
H23_4 H 0.041968 0.543990 0.794703
O9_4 O 0.00203(10) 0.3713(3) 0.9162(2)
O13_4 O 0.01356(10) 0.5717(2) 0.94808(16)
H16_4 H 0.984261 0.177149 0.381444
O2_4 O 0.99797(10) 0.6287(3) 0.0838(2)
O7_5 O 0.59114(13) 0.1995(3) 0.4578(3)
H1_5 H 0.5913(14) 0.233(3) 0.5010(18)
O8_5 O 0.57278(12) 0.0298(3) 0.37032(19)
C28_5 C 0.5957(4) 0.2436(7) 0.3955(6)
H18_5 H 0.619573 0.285312 0.402174
H19_5 H 0.600143 0.197276 0.361124
H20_5 H 0.570534 0.278836 0.379877
C29_5 C 0.5448(2) 0.0211(9) 0.3075(4)
H21_5 H 0.517511 0.045821 0.314066
H22_5 H 0.555822 0.055424 0.271176
O10_3 O 0.61950(9) 0.0865(2) 0.57588(17)
O14_3 O 0.53720(11) 0.1769(3) 0.5634(3)
O4_3 O 0.87095(9) 0.4941(2) 0.01181(16)
H12_5 H 0.791268 0.472364 0.014311
O1_5 O 0.56029(10) 0.9395(2) 0.57802(18)
O3_3 O 0.88050(9) 0.5865(2) 0.92412(17)
O6_3 O 0.46280(11) 0.1769(3) 0.9366(3)
H2_5 H 0.568931 0.986160 0.396396
C1_5 C 0.53740(14) 0.8768(3) 0.5988(2)
C2_5 C 0.55862(14) 0.8023(3) 0.6457(2)
C3_5 C 0.60162(16) 0.7938(4) 0.6567(3)
H3_5 H 0.618293 0.836526 0.636196
C4_5 C 0.62077(16) 0.7229(4) 0.6977(3)
H4_5 H 0.650131 0.717751 0.703139
C5_5 C 0.59773(13) 0.6595(3) 0.7310(2)
C6_5 C 0.55451(16) 0.6733(5) 0.7250(4)
H5_5 H 0.538080 0.635382 0.749987
C7_5 C 0.53532(16) 0.7434(5) 0.6818(3)
H6_5 H 0.506049 0.750396 0.677351
C8_5 C 0.61792(13) 0.5832(3) 0.7767(2)
C9_5 C 0.66040(13) 0.5867(3) 0.8045(2)
H7_5 H 0.677061 0.636365 0.792765
C10_5 C 0.67852(13) 0.5172(3) 0.8495(2)
C11_5 C 0.65305(14) 0.4443(3) 0.8684(3)
H8_5 H 0.664708 0.398739 0.899577
C12_5 C 0.61030(14) 0.4388(3) 0.8413(3)
C13_5 C 0.59376(14) 0.5079(3) 0.7948(3)
H9_5 H 0.565564 0.503686 0.775222
C14_5 C 0.72418(12) 0.5210(3) 0.8773(2)
C15_5 C 0.75348(14) 0.5554(3) 0.8361(2)
H10_5 H 0.744323 0.575886 0.791000
C16_5 C 0.79647(14) 0.5596(3) 0.8618(2)
H11_5 H 0.815650 0.583518 0.833976
C17_5 C 0.81073(13) 0.5285(3) 0.9280(2)
C18_5 C 0.78190(14) 0.4937(4) 0.9695(3)
C19_5 C 0.73911(14) 0.4905(4) 0.9442(3)
H13_5 H 0.720021 0.467562 0.972634
C20_5 C 0.85668(12) 0.5362(3) 0.9559(2)
C21_5 C 0.58230(14) 0.3639(3) 0.8631(3)
C22_5 C 0.59877(14) 0.2774(3) 0.8878(3)
H14_5 H 0.627665 0.265970 0.889795
C23_5 C 0.57253(15) 0.2082(3) 0.9092(3)
H15_5 H 0.583992 0.151397 0.926219
C24_5 C 0.52932(15) 0.2237(4) 0.9053(3)
C25_5 C 0.51308(17) 0.3110(5) 0.8827(4)
H16_5 H 0.484261 0.322851 0.881444
C26_5 C 0.53919(17) 0.3798(4) 0.8624(4)
H17_5 H 0.527829 0.437753 0.847907
C27_5 C 0.50028(14) 0.1538(3) 0.9306(3)
H23_5 H 0.541968 0.956010 0.294703
O11_3 O 0.62905(9) 0.9941(2) 0.48819(16)
O7_6 O 0.40886(13) 0.1995(3) 0.0422(3)
O8_6 O 0.42722(12) 0.0298(3) 0.12968(19)
C28_6 C 0.4043(4) 0.2436(7) 0.1045(6)
H18_6 H 0.380427 0.285312 0.097826
H19_6 H 0.399857 0.197276 0.138876
H20_6 H 0.429466 0.278836 0.120123
C29_6 C 0.4552(2) 0.0211(9) 0.1925(4)
H21_6 H 0.482489 0.045821 0.185934
H22_6 H 0.444178 0.055424 0.228824
H1_6 H 0.4087(14) 0.233(3) 0.9990(18)
O10_4 O 0.38050(9) 0.0865(2) 0.92412(17)
H2_6 H 0.431069 0.986160 0.103604
H23_6 H 0.458032 0.956010 0.205297
O11_4 O 0.37095(9) 0.9941(2) 0.01181(16)
O1_6 O 0.43971(10) 0.9395(2) 0.92198(18)
O3_4 O 0.11950(9) 0.5865(2) 0.57588(17)
O4_4 O 0.12905(9) 0.4941(2) 0.48819(16)
C1_6 C 0.46260(14) 0.8768(3) 0.9012(2)
C2_6 C 0.44138(14) 0.8023(3) 0.8543(2)
C3_6 C 0.39838(16) 0.7938(4) 0.8433(3)
H3_6 H 0.381707 0.836526 0.863804
C4_6 C 0.37923(16) 0.7229(4) 0.8023(3)
H4_6 H 0.349869 0.717751 0.796861
C5_6 C 0.40227(13) 0.6595(3) 0.7690(2)
C6_6 C 0.44549(16) 0.6733(5) 0.7750(4)
H5_6 H 0.461920 0.635382 0.750013
C7_6 C 0.46468(16) 0.7434(5) 0.8182(3)
H6_6 H 0.493951 0.750396 0.822649
C8_6 C 0.38208(13) 0.5832(3) 0.7233(2)
C9_6 C 0.33960(13) 0.5867(3) 0.6955(2)
H7_6 H 0.322939 0.636365 0.707235
C10_6 C 0.32148(13) 0.5172(3) 0.6505(2)
C11_6 C 0.34695(14) 0.4443(3) 0.6316(3)
H8_6 H 0.335292 0.398739 0.600423
C12_6 C 0.38970(14) 0.4388(3) 0.6587(3)
C13_6 C 0.40624(14) 0.5079(3) 0.7052(3)
H9_6 H 0.434436 0.503686 0.724778
C14_6 C 0.27582(12) 0.5210(3) 0.6227(2)
C15_6 C 0.24652(14) 0.5554(3) 0.6639(2)
H10_6 H 0.255677 0.575886 0.709000
C16_6 C 0.20353(14) 0.5596(3) 0.6382(2)
H11_6 H 0.184350 0.583518 0.666024
C17_6 C 0.18927(13) 0.5285(3) 0.5720(2)
C18_6 C 0.21810(14) 0.4937(4) 0.5305(3)
H12_6 H 0.208732 0.472364 0.485689
C19_6 C 0.26089(14) 0.4905(4) 0.5558(3)
H13_6 H 0.279979 0.467562 0.527366
C20_6 C 0.14332(12) 0.5362(3) 0.5441(2)
C21_6 C 0.41770(14) 0.3639(3) 0.6369(3)
C22_6 C 0.40123(14) 0.2774(3) 0.6122(3)
H14_6 H 0.372335 0.265970 0.610205
C23_6 C 0.42747(15) 0.2082(3) 0.5908(3)
H15_6 H 0.416008 0.151397 0.573781
C24_6 C 0.47068(15) 0.2237(4) 0.5947(3)
C25_6 C 0.48692(17) 0.3110(5) 0.6173(4)
H16_6 H 0.515739 0.322851 0.618556
C26_6 C 0.46081(17) 0.3798(4) 0.6376(4)
H17_6 H 0.472171 0.437753 0.652093
C27_6 C 0.49972(14) 0.1538(3) 0.5694(3)
O1_7 O 0.06029(10) 0.4395(2) 0.57802(18)
O7_7 O 0.09114(13) 0.6995(3) 0.4578(3)
H1_7 H 0.0913(14) 0.733(3) 0.5010(18)
O8_7 O 0.07278(12) 0.5298(3) 0.37032(19)
H2_7 H 0.068931 0.486160 0.396396
C1_7 C 0.03740(14) 0.3768(3) 0.5988(2)
C2_7 C 0.05862(14) 0.3023(3) 0.6457(2)
C3_7 C 0.10162(16) 0.2938(4) 0.6567(3)
H3_7 H 0.118293 0.336526 0.636196
C4_7 C 0.12077(16) 0.2229(4) 0.6977(3)
H4_7 H 0.150131 0.217751 0.703139
C5_7 C 0.09773(13) 0.1595(3) 0.7310(2)
C6_7 C 0.05451(16) 0.1733(5) 0.7250(4)
H5_7 H 0.038080 0.135382 0.749987
C7_7 C 0.03532(16) 0.2434(5) 0.6818(3)
H6_7 H 0.006049 0.250396 0.677351
C8_7 C 0.11792(13) 0.0832(3) 0.7767(2)
C9_7 C 0.16040(13) 0.0867(3) 0.8045(2)
H7_7 H 0.177061 0.136365 0.792765
C10_7 C 0.17852(13) 0.0172(3) 0.8495(2)
C13_7 C 0.09376(14) 0.0079(3) 0.7948(3)
H9_7 H 0.065564 0.003686 0.775222
C14_7 C 0.22418(12) 0.0210(3) 0.8773(2)
C15_7 C 0.25348(14) 0.0554(3) 0.8361(2)
H10_7 H 0.244323 0.075886 0.791000
C16_7 C 0.29647(14) 0.0596(3) 0.8618(2)
H11_7 H 0.315650 0.083518 0.833976
C17_7 C 0.31073(13) 0.0285(3) 0.9280(2)
C20_7 C 0.35668(12) 0.0362(3) 0.9559(2)
C28_7 C 0.0957(4) 0.7436(7) 0.3955(6)
H18_7 H 0.119573 0.785312 0.402174
H19_7 H 0.100143 0.697276 0.361124
H20_7 H 0.070534 0.778836 0.379877
C29_7 C 0.0448(2) 0.5211(9) 0.3075(4)
H21_7 H 0.017511 0.545821 0.314066
H22_7 H 0.055822 0.555424 0.271176
H23_7 H 0.041968 0.456010 0.294703
O14_4 O 0.03720(11) 0.6769(3) 0.5634(3)
H12_7 H 0.291268 0.972364 0.014311
C11_7 C 0.15305(14) 0.9443(3) 0.8684(3)
H8_7 H 0.164708 0.898739 0.899577
C12_7 C 0.11030(14) 0.9388(3) 0.8413(3)
C18_7 C 0.28190(14) 0.9937(4) 0.9695(3)
C19_7 C 0.23911(14) 0.9905(4) 0.9442(3)
H13_7 H 0.220021 0.967562 0.972634
C21_7 C 0.08230(14) 0.8639(3) 0.8631(3)
C22_7 C 0.09877(14) 0.7774(3) 0.8878(3)
H14_7 H 0.127665 0.765970 0.889795
C23_7 C 0.07253(15) 0.7082(3) 0.9092(3)
H15_7 H 0.083992 0.651397 0.926219
C24_7 C 0.02932(15) 0.7237(4) 0.9053(3)
C25_7 C 0.01308(17) 0.8110(5) 0.8827(4)
C26_7 C 0.03919(17) 0.8798(4) 0.8624(4)
H17_7 H 0.027829 0.937753 0.847907
C27_7 C 0.00028(14) 0.6538(3) 0.9306(3)
O6_4 O 0.96280(11) 0.6769(3) 0.9366(3)
H16_7 H 0.984261 0.822851 0.881444
H16_8 H 0.015739 0.822851 0.618556
O7_8 O 0.90886(13) 0.6995(3) 0.0422(3)
O8_8 O 0.92722(12) 0.5298(3) 0.12968(19)
H2_8 H 0.931069 0.486160 0.103604
C28_8 C 0.9043(4) 0.7436(7) 0.1045(6)
H18_8 H 0.880427 0.785312 0.097826
H19_8 H 0.899857 0.697276 0.138876
H20_8 H 0.929466 0.778836 0.120123
C29_8 C 0.9552(2) 0.5211(9) 0.1925(4)
H21_8 H 0.982489 0.545821 0.185934
H22_8 H 0.944178 0.555424 0.228824
H23_8 H 0.958032 0.456010 0.205297
O1_8 O 0.93971(10) 0.4395(2) 0.92198(18)
H1_8 H 0.9087(14) 0.733(3) 0.9990(18)
C1_8 C 0.96260(14) 0.3768(3) 0.9012(2)
C2_8 C 0.94138(14) 0.3023(3) 0.8543(2)
C3_8 C 0.89838(16) 0.2938(4) 0.8433(3)
H3_8 H 0.881707 0.336526 0.863804
C4_8 C 0.87923(16) 0.2229(4) 0.8023(3)
H4_8 H 0.849869 0.217751 0.796861
C5_8 C 0.90227(13) 0.1595(3) 0.7690(2)
C6_8 C 0.94549(16) 0.1733(5) 0.7750(4)
H5_8 H 0.961920 0.135382 0.750013
C7_8 C 0.96468(16) 0.2434(5) 0.8182(3)
H6_8 H 0.993951 0.250396 0.822649
C8_8 C 0.88208(13) 0.0832(3) 0.7233(2)
C9_8 C 0.83960(13) 0.0867(3) 0.6955(2)
H7_8 H 0.822939 0.136365 0.707235
C10_8 C 0.82148(13) 0.0172(3) 0.6505(2)
C13_8 C 0.90624(14) 0.0079(3) 0.7052(3)
H9_8 H 0.934436 0.003686 0.724778
C14_8 C 0.77582(12) 0.0210(3) 0.6227(2)
C15_8 C 0.74652(14) 0.0554(3) 0.6639(2)
H10_8 H 0.755677 0.075886 0.709000
C16_8 C 0.70353(14) 0.0596(3) 0.6382(2)
H11_8 H 0.684350 0.083518 0.666024
C17_8 C 0.68927(13) 0.0285(3) 0.5720(2)
C20_8 C 0.64332(12) 0.0362(3) 0.5441(2)
C11_8 C 0.84695(14) 0.9443(3) 0.6316(3)
H8_8 H 0.835292 0.898739 0.600423
C12_8 C 0.88970(14) 0.9388(3) 0.6587(3)
C18_8 C 0.71810(14) 0.9937(4) 0.5305(3)
H12_8 H 0.708732 0.972364 0.485689
C19_8 C 0.76089(14) 0.9905(4) 0.5558(3)
H13_8 H 0.779979 0.967562 0.527366
C21_8 C 0.91770(14) 0.8639(3) 0.6369(3)
C22_8 C 0.90123(14) 0.7774(3) 0.6122(3)
H14_8 H 0.872335 0.765970 0.610205
C23_8 C 0.92747(15) 0.7082(3) 0.5908(3)
H15_8 H 0.916008 0.651397 0.573781
C24_8 C 0.97068(15) 0.7237(4) 0.5947(3)
C25_8 C 0.98692(17) 0.8110(5) 0.6173(4)
C26_8 C 0.96081(17) 0.8798(4) 0.6376(4)
H17_8 H 0.972171 0.937753 0.652093
C27_8 C 0.99972(14) 0.6538(3) 0.5694(3)
loop_
_geom_bond_atom_site_label_1
_geom_bond_atom_site_label_2
_geom_bond_site_symmetry_1
_geom_bond_site_symmetry_2
O1 C1 1_555 1_555
O2 C1 1_555 1_555
O3 C20 1_555 1_555
O5 C27 1_555 1_555
O6 C27 1_555 1_555
C1 C2 1_555 1_555
C2 C3 1_555 1_555
C3 H3 1_555 1_555
C4 C3 1_555 1_555
H4 C4 1_555 1_555
C5 C4 1_555 1_555
C6 C5 1_555 1_555
H5 C6 1_555 1_555
C7 C2 1_555 1_555
H6 C7 1_555 1_555
C8 C5 1_555 1_555
C9 C8 1_555 1_555
H7 C9 1_555 1_555
C10 C9 1_555 1_555
C11 C10 1_555 1_555
H8 C11 1_555 1_555
C12 C11 1_555 1_555
C13 C8 1_555 1_555
H9 C13 1_555 1_555
C14 C10 1_555 1_555
C15 C14 1_555 1_555
H10 C15 1_555 1_555
C16 C15 1_555 1_555
H11 C16 1_555 1_555
C17 C16 1_555 1_555
C18 C17 1_555 1_555
C19 C14 1_555 1_555
H13 C19 1_555 1_555
C20 C17 1_555 1_555
C21 C12 1_555 1_555
C22 C21 1_555 1_555
H14 C22 1_555 1_555
C23 C22 1_555 1_555
H15 C23 1_555 1_555
C24 C23 1_555 1_555
C25 C24 1_555 1_555
H16 C25 1_555 1_555
C26 C21 1_555 1_555
H17 C26 1_555 1_555
C27 C24 1_555 1_555
Gd4 O2 1_555 1_555
C6 C7 1_555 1_555
C12 C13 1_555 1_555
C18 C19 1_555 1_555
C25 C26 1_555 1_555
Gd4 O13 1_555 1_555
O4 Gd3 1_555 1_555
O7 Gd1 1_555 1_555
H1 O7 1_555 1_555
O8 Gd1 1_555 1_555
C28 O7 1_555 1_555
H18 C28 1_555 1_555
H19 C28 1_555 1_555
H20 C28 1_555 1_555
C29 O8 1_555 1_555
H21 C29 1_555 1_555
H22 C29 1_555 1_555
O9 Gd1 1_555 1_555
O10 Gd1 1_555 1_555
O12 Gd1 1_555 1_555
O14 Gd1 1_555 1_555
O1_2 C1_2 1_555 1_555
O2_2 C1_2 1_555 1_555
O3_2 C20_2 1_555 1_555
O4_2 C20_2 1_555 1_555
O12 C27_2 1_555 1_555
O14 C27_2 1_555 1_555
C1_2 C2_2 1_555 1_555
C2_2 C3_2 1_555 1_555
C3_2 H3_2 1_555 1_555
C4_2 C3_2 1_555 1_555
H4_2 C4_2 1_555 1_555
C5_2 C4_2 1_555 1_555
C6_2 C5_2 1_555 1_555
H5_2 C6_2 1_555 1_555
C7_2 C2_2 1_555 1_555
H6_2 C7_2 1_555 1_555
C8_2 C5_2 1_555 1_555
C9_2 C8_2 1_555 1_555
H7_2 C9_2 1_555 1_555
C10_2 C9_2 1_555 1_555
C11_2 C10_2 1_555 1_555
H8_2 C11_2 1_555 1_555
C12_2 C11_2 1_555 1_555
C13_2 C8_2 1_555 1_555
H9_2 C13_2 1_555 1_555
C14_2 C10_2 1_555 1_555
C15_2 C14_2 1_555 1_555
H10_2 C15_2 1_555 1_555
C16_2 C15_2 1_555 1_555
H11_2 C16_2 1_555 1_555
C17_2 C16_2 1_555 1_555
C18_2 C17_2 1_555 1_555
H12_2 C18_2 1_555 1_555
C19_2 C14_2 1_555 1_555
H13_2 C19_2 1_555 1_555
C20_2 C17_2 1_555 1_555
C21_2 C12_2 1_555 1_555
C22_2 C21_2 1_555 1_555
H14_2 C22_2 1_555 1_555
C23_2 C22_2 1_555 1_555
H15_2 C23_2 1_555 1_555
C24_2 C23_2 1_555 1_555
C25_2 C24_2 1_555 1_555
H16_2 C25_2 1_555 1_555
C26_2 C21_2 1_555 1_555
H17_2 C26_2 1_555 1_555
C27_2 C24_2 1_555 1_555
Gd3_2 O3_2 1_555 1_555
Gd5 O2_2 1_555 1_555
O4_2 Gd3_2 1_555 1_555
C6_2 C7_2 1_555 1_555
C12_2 C13_2 1_555 1_555
C18_2 C19_2 1_555 1_555
C25_2 C26_2 1_555 1_555
O7_2 Gd2 1_555 1_555
O8_2 Gd2 1_555 1_555
C28_2 O7_2 1_555 1_555
H18_2 C28_2 1_555 1_555
H19_2 C28_2 1_555 1_555
H20_2 C28_2 1_555 1_555
C29_2 O8_2 1_555 1_555
H21_2 C29_2 1_555 1_555
H22_2 C29_2 1_555 1_555
O9_2 Gd2 1_555 1_555
Gd4_2 O2_3 1_555 1_555
Gd4_2 O12_2 1_555 1_555
O5_2 C27_3 1_555 1_555
H8_3 C11_3 1_555 1_555
C12_3 C11_3 1_555 1_555
H13_3 C19_3 1_555 1_555
C21_3 C12_3 1_555 1_555
C22_3 C21_3 1_555 1_555
H14_3 C22_3 1_555 1_555
C23_3 C22_3 1_555 1_555
H15_3 C23_3 1_555 1_555
C24_3 C23_3 1_555 1_555
C25_3 C24_3 1_555 1_555
C26_3 C21_3 1_555 1_555
H17_3 C26_3 1_555 1_555
C27_3 C24_3 1_555 1_555
Gd5_2 O5_2 1_555 1_555
C18_3 C19_3 1_555 1_555
C25_3 C26_3 1_555 1_555
Gd3_2 O1_3 1_555 1_555
O1_3 C1_3 1_555 1_555
O10_2 C20_3 1_555 1_555
O7_3 Gd3_2 1_555 1_555
H1_3 O7_3 1_555 1_555
O8_3 Gd3_2 1_555 1_555
H2_3 O8_3 1_555 1_555
C1_3 C2_3 1_555 1_555
C2_3 C3_3 1_555 1_555
C3_3 H3_3 1_555 1_555
C4_3 C3_3 1_555 1_555
H4_3 C4_3 1_555 1_555
C5_3 C4_3 1_555 1_555
C6_3 C5_3 1_555 1_555
H5_3 C6_3 1_555 1_555
C7_3 C2_3 1_555 1_555
H6_3 C7_3 1_555 1_555
C8_3 C5_3 1_555 1_555
C9_3 C8_3 1_555 1_555
H7_3 C9_3 1_555 1_555
C10_3 C9_3 1_555 1_555
C13_3 C8_3 1_555 1_555
H9_3 C13_3 1_555 1_555
C14_3 C10_3 1_555 1_555
C15_3 C14_3 1_555 1_555
H10_3 C15_3 1_555 1_555
C16_3 C15_3 1_555 1_555
H11_3 C16_3 1_555 1_555
C17_3 C16_3 1_555 1_555
C20_3 C17_3 1_555 1_555
C28_3 O7_3 1_555 1_555
H18_3 C28_3 1_555 1_555
H19_3 C28_3 1_555 1_555
H20_3 C28_3 1_555 1_555
C29_3 O8_3 1_555 1_555
H21_3 C29_3 1_555 1_555
H22_3 C29_3 1_555 1_555
H23_3 C29_3 1_555 1_555
O9_3 Gd3_2 1_555 1_555
O13_3 Gd3_2 1_555 1_555
O14_2 Gd3_2 1_555 1_555
C6_3 C7_3 1_555 1_555
O12_2 C27_4 1_555 1_555
H8_4 C11_4 1_555 1_555
C12_4 C11_4 1_555 1_555
H12_4 C18_4 1_555 1_555
H13_4 C19_4 1_555 1_555
C21_4 C12_4 1_555 1_555
C22_4 C21_4 1_555 1_555
H14_4 C22_4 1_555 1_555
C23_4 C22_4 1_555 1_555
H15_4 C23_4 1_555 1_555
C24_4 C23_4 1_555 1_555
C25_4 C24_4 1_555 1_555
C26_4 C21_4 1_555 1_555
H17_4 C26_4 1_555 1_555
C27_4 C24_4 1_555 1_555
C18_4 C19_4 1_555 1_555
C25_4 C26_4 1_555 1_555
O1_4 C1_4 1_555 1_555
O10 C20_4 1_555 1_555
C1_4 C2_4 1_555 1_555
C2_4 C3_4 1_555 1_555
C3_4 H3_4 1_555 1_555
C4_4 C3_4 1_555 1_555
H4_4 C4_4 1_555 1_555
C5_4 C4_4 1_555 1_555
C6_4 C5_4 1_555 1_555
H5_4 C6_4 1_555 1_555
C7_4 C2_4 1_555 1_555
H6_4 C7_4 1_555 1_555
C8_4 C5_4 1_555 1_555
C9_4 C8_4 1_555 1_555
H7_4 C9_4 1_555 1_555
C10_4 C9_4 1_555 1_555
C13_4 C8_4 1_555 1_555
H9_4 C13_4 1_555 1_555
C14_4 C10_4 1_555 1_555
C15_4 C14_4 1_555 1_555
H10_4 C15_4 1_555 1_555
C16_4 C15_4 1_555 1_555
H11_4 C16_4 1_555 1_555
C17_4 C16_4 1_555 1_555
C20_4 C17_4 1_555 1_555
C6_4 C7_4 1_555 1_555
O7_4 Gd3 1_555 1_555
O8_4 Gd3 1_555 1_555
H2_4 O8_4 1_555 1_555
C28_4 O7_4 1_555 1_555
H18_4 C28_4 1_555 1_555
H19_4 C28_4 1_555 1_555
H20_4 C28_4 1_555 1_555
C29_4 O8_4 1_555 1_555
H21_4 C29_4 1_555 1_555
H22_4 C29_4 1_555 1_555
H23_4 C29_4 1_555 1_555
O9_4 Gd3 1_555 1_555
O13_4 Gd3 1_555 1_555
Gd5_2 O2_4 1_555 1_555
O7_5 Gd4 1_555 1_555
H1_5 O7_5 1_555 1_555
O8_5 Gd4 1_555 1_555
C28_5 O7_5 1_555 1_555
H18_5 C28_5 1_555 1_555
H19_5 C28_5 1_555 1_555
H20_5 C28_5 1_555 1_555
C29_5 O8_5 1_555 1_555
H21_5 C29_5 1_555 1_555
H22_5 C29_5 1_555 1_555
O10_3 Gd4 1_555 1_555
O14_3 Gd4 1_555 1_555
O4_3 Gd5_2 1_555 1_555
O1_5 C1_5 1_555 1_555
O9 C1_5 1_555 1_555
O3_3 C20_5 1_555 1_555
O13_2 C27_5 1_555 1_555
O6_3 C27_5 1_555 1_555
C1_5 C2_5 1_555 1_555
C2_5 C3_5 1_555 1_555
C3_5 H3_5 1_555 1_555
C4_5 C3_5 1_555 1_555
H4_5 C4_5 1_555 1_555
C5_5 C4_5 1_555 1_555
C6_5 C5_5 1_555 1_555
H5_5 C6_5 1_555 1_555
C7_5 C2_5 1_555 1_555
H6_5 C7_5 1_555 1_555
C8_5 C5_5 1_555 1_555
C9_5 C8_5 1_555 1_555
H7_5 C9_5 1_555 1_555
C10_5 C9_5 1_555 1_555
C11_5 C10_5 1_555 1_555
H8_5 C11_5 1_555 1_555
C12_5 C11_5 1_555 1_555
C13_5 C8_5 1_555 1_555
H9_5 C13_5 1_555 1_555
C14_5 C10_5 1_555 1_555
C15_5 C14_5 1_555 1_555
H10_5 C15_5 1_555 1_555
C16_5 C15_5 1_555 1_555
H11_5 C16_5 1_555 1_555
C17_5 C16_5 1_555 1_555
C18_5 C17_5 1_555 1_555
C19_5 C14_5 1_555 1_555
H13_5 C19_5 1_555 1_555
C20_5 C17_5 1_555 1_555
C21_5 C12_5 1_555 1_555
C22_5 C21_5 1_555 1_555
H14_5 C22_5 1_555 1_555
C23_5 C22_5 1_555 1_555
H15_5 C23_5 1_555 1_555
C24_5 C23_5 1_555 1_555
C25_5 C24_5 1_555 1_555
H16_5 C25_5 1_555 1_555
C26_5 C21_5 1_555 1_555
H17_5 C26_5 1_555 1_555
C27_5 C24_5 1_555 1_555
C6_5 C7_5 1_555 1_555
C12_5 C13_5 1_555 1_555
C18_5 C19_5 1_555 1_555
C25_5 C26_5 1_555 1_555
O7_6 Gd5 1_555 1_555
O8_6 Gd5 1_555 1_555
C28_6 O7_6 1_555 1_555
H18_6 C28_6 1_555 1_555
H19_6 C28_6 1_555 1_555
H20_6 C28_6 1_555 1_555
C29_6 O8_6 1_555 1_555
H21_6 C29_6 1_555 1_555
H22_6 C29_6 1_555 1_555
O1_6 C1_6 1_555 1_555
O9_2 C1_6 1_555 1_555
O3_4 C20_6 1_555 1_555
O4_4 C20_6 1_555 1_555
O13 C27_6 1_555 1_555
O14_3 C27_6 1_555 1_555
C1_6 C2_6 1_555 1_555
C2_6 C3_6 1_555 1_555
C3_6 H3_6 1_555 1_555
C4_6 C3_6 1_555 1_555
H4_6 C4_6 1_555 1_555
C5_6 C4_6 1_555 1_555
C6_6 C5_6 1_555 1_555
H5_6 C6_6 1_555 1_555
C7_6 C2_6 1_555 1_555
H6_6 C7_6 1_555 1_555
C8_6 C5_6 1_555 1_555
C9_6 C8_6 1_555 1_555
H7_6 C9_6 1_555 1_555
C10_6 C9_6 1_555 1_555
C11_6 C10_6 1_555 1_555
H8_6 C11_6 1_555 1_555
C12_6 C11_6 1_555 1_555
C13_6 C8_6 1_555 1_555
H9_6 C13_6 1_555 1_555
C14_6 C10_6 1_555 1_555
C15_6 C14_6 1_555 1_555
H10_6 C15_6 1_555 1_555
C16_6 C15_6 1_555 1_555
H11_6 C16_6 1_555 1_555
C17_6 C16_6 1_555 1_555
C18_6 C17_6 1_555 1_555
H12_6 C18_6 1_555 1_555
C19_6 C14_6 1_555 1_555
H13_6 C19_6 1_555 1_555
C20_6 C17_6 1_555 1_555
C21_6 C12_6 1_555 1_555
C22_6 C21_6 1_555 1_555
H14_6 C22_6 1_555 1_555
C23_6 C22_6 1_555 1_555
H15_6 C23_6 1_555 1_555
C24_6 C23_6 1_555 1_555
C25_6 C24_6 1_555 1_555
H16_6 C25_6 1_555 1_555
C26_6 C21_6 1_555 1_555
H17_6 C26_6 1_555 1_555
C27_6 C24_6 1_555 1_555
Gd4_2 O3_4 1_555 1_555
O4_4 Gd4_2 1_555 1_555
C6_6 C7_6 1_555 1_555
C12_6 C13_6 1_555 1_555
C18_6 C19_6 1_555 1_555
C25_6 C26_6 1_555 1_555
Gd4_2 O1_7 1_555 1_555
O1_7 C1_7 1_555 1_555
O10_4 C20_7 1_555 1_555
O7_7 Gd4_2 1_555 1_555
H1_7 O7_7 1_555 1_555
O8_7 Gd4_2 1_555 1_555
H2_7 O8_7 1_555 1_555
C1_7 C2_7 1_555 1_555
C2_7 C3_7 1_555 1_555
C3_7 H3_7 1_555 1_555
C4_7 C3_7 1_555 1_555
H4_7 C4_7 1_555 1_555
C5_7 C4_7 1_555 1_555
C6_7 C5_7 1_555 1_555
H5_7 C6_7 1_555 1_555
C7_7 C2_7 1_555 1_555
H6_7 C7_7 1_555 1_555
C8_7 C5_7 1_555 1_555
C9_7 C8_7 1_555 1_555
H7_7 C9_7 1_555 1_555
C10_7 C9_7 1_555 1_555
C13_7 C8_7 1_555 1_555
H9_7 C13_7 1_555 1_555
C14_7 C10_7 1_555 1_555
C15_7 C14_7 1_555 1_555
H10_7 C15_7 1_555 1_555
C16_7 C15_7 1_555 1_555
H11_7 C16_7 1_555 1_555
C17_7 C16_7 1_555 1_555
C20_7 C17_7 1_555 1_555
C28_7 O7_7 1_555 1_555
H18_7 C28_7 1_555 1_555
H19_7 C28_7 1_555 1_555
H20_7 C28_7 1_555 1_555
C29_7 O8_7 1_555 1_555
H21_7 C29_7 1_555 1_555
H22_7 C29_7 1_555 1_555
H23_7 C29_7 1_555 1_555
O14_4 Gd4_2 1_555 1_555
C6_7 C7_7 1_555 1_555
O13_4 C27_7 1_555 1_555
H8_7 C11_7 1_555 1_555
C12_7 C11_7 1_555 1_555
H13_7 C19_7 1_555 1_555
C21_7 C12_7 1_555 1_555
C22_7 C21_7 1_555 1_555
H14_7 C22_7 1_555 1_555
C23_7 C22_7 1_555 1_555
H15_7 C23_7 1_555 1_555
C24_7 C23_7 1_555 1_555
C25_7 C24_7 1_555 1_555
C26_7 C21_7 1_555 1_555
H17_7 C26_7 1_555 1_555
C27_7 C24_7 1_555 1_555
C18_7 C19_7 1_555 1_555
C25_7 C26_7 1_555 1_555
O7_8 Gd5_2 1_555 1_555
O8_8 Gd5_2 1_555 1_555
H2_8 O8_8 1_555 1_555
C28_8 O7_8 1_555 1_555
H18_8 C28_8 1_555 1_555
H19_8 C28_8 1_555 1_555
H20_8 C28_8 1_555 1_555
C29_8 O8_8 1_555 1_555
H21_8 C29_8 1_555 1_555
H22_8 C29_8 1_555 1_555
H23_8 C29_8 1_555 1_555
O1_8 C1_8 1_555 1_555
O10_3 C20_8 1_555 1_555
C1_8 C2_8 1_555 1_555
C2_8 C3_8 1_555 1_555
C3_8 H3_8 1_555 1_555
C4_8 C3_8 1_555 1_555
H4_8 C4_8 1_555 1_555
C5_8 C4_8 1_555 1_555
C6_8 C5_8 1_555 1_555
H5_8 C6_8 1_555 1_555
C7_8 C2_8 1_555 1_555
H6_8 C7_8 1_555 1_555
C8_8 C5_8 1_555 1_555
C9_8 C8_8 1_555 1_555
H7_8 C9_8 1_555 1_555
C10_8 C9_8 1_555 1_555
C13_8 C8_8 1_555 1_555
H9_8 C13_8 1_555 1_555
C14_8 C10_8 1_555 1_555
C15_8 C14_8 1_555 1_555
H10_8 C15_8 1_555 1_555
C16_8 C15_8 1_555 1_555
H11_8 C16_8 1_555 1_555
C17_8 C16_8 1_555 1_555
C20_8 C17_8 1_555 1_555
C6_8 C7_8 1_555 1_555
O13_3 C27_8 1_555 1_555
H8_8 C11_8 1_555 1_555
C12_8 C11_8 1_555 1_555
H12_8 C18_8 1_555 1_555
H13_8 C19_8 1_555 1_555
C21_8 C12_8 1_555 1_555
C22_8 C21_8 1_555 1_555
H14_8 C22_8 1_555 1_555
C23_8 C22_8 1_555 1_555
H15_8 C23_8 1_555 1_555
C24_8 C23_8 1_555 1_555
C25_8 C24_8 1_555 1_555
C26_8 C21_8 1_555 1_555
H17_8 C26_8 1_555 1_555
C27_8 C24_8 1_555 1_555
C18_8 C19_8 1_555 1_555
C25_8 C26_8 1_555 1_555

#END
