
###############################################################################
#
# This file contains modified crystal structure data generated from the
# MOF subset of the Cambridge Structural Database (CSD) v543 
# hosted by the Cambridge Crystallographic Data Centre (CCDC).
#
# This work is licensed under the Creative Commons
# Attribution-NonCommercial-ShareAlike 4.0 International License.
# To view a copy of this license, visit
# http://creativecommons.org/licenses/by-nc-sa/4.0/
# or send a letter to
# Creative Commons, PO Box 1866, Mountain View, CA 94042, USA.
#
# CIF created using the CSD Python API on 29 September 2022
# The structure has been converted into the P1 space group
# The structure has a 3D framework
# The original CSD entry ZUYSIY is in the monoclinic crystal system
# The framework has been calculated to contain at least 10.0% void space
# The void calculation uses a probe of radius 1.32A, grid spacing 0.4
#
###############################################################################

data_ZUYSIY
_chemical_formula_moiety         '(C208 H144 Cu8 N16 O44)n'
_symmetry_cell_setting           triclinic
_symmetry_space_group_name_H-M   'P 1'
_symmetry_Int_Tables_number      1
_space_group_name_Hall           'P 1'
loop_
_symmetry_equiv_pos_site_id
_symmetry_equiv_pos_as_xyz
1 x,y,z
_cell_length_a                   19.2022(4)
_cell_length_b                   13.4963(3)
_cell_length_c                   22.4451(5)
_cell_angle_alpha                90
_cell_angle_beta                 107.448(2)
_cell_angle_gamma                90
_cell_volume                     5549.21
loop_
_atom_site_label
_atom_site_type_symbol
_atom_site_fract_x
_atom_site_fract_y
_atom_site_fract_z
O3 O 0.01039(9) 0.00566(13) 0.40441(7)
H2 H 0.014336 0.032932 0.296751
Cu1 Cu 0.03252(2) 0.92528(2) 0.48091(2)
O1 O 0.62285(8) 0.49855(13) 0.01605(7)
O2 O 0.56739(9) 0.37265(13) 0.04753(8)
O4 O 0.95416(9) 0.13092(13) 0.43591(8)
O5 O 0.89551(9) 0.23374(15) 0.14949(8)
C1 C 0.62276(14) 0.4162(2) 0.04232(11)
C2 C 0.97538(13) 0.0855(2) 0.39557(12)
C3 C 0.95507(13) 0.12756(19) 0.33129(11)
C4 C 0.69571(13) 0.36828(19) 0.07127(10)
C5 C 0.91368(13) 0.1991(2) 0.21073(12)
C6 C 0.75991(14) 0.4155(2) 0.07292(12)
H1 H 0.758190 0.478042 0.055158
C7 C 0.98208(13) 0.08602(19) 0.28629(12)
C8 C 0.82653(14) 0.3716(2) 0.10040(12)
H3 H 0.869557 0.404755 0.102148
C9 C 0.96170(13) 0.1224(2) 0.22628(12)
H4 H 0.980661 0.094747 0.196496
C10 C 0.82864(14) 0.2790(2) 0.12500(11)
C11 C 0.90833(14) 0.2067(2) 0.31478(12)
H5 H 0.890822 0.236408 0.344834
C12 C 0.69902(13) 0.2746(2) 0.09656(12)
H6 H 0.656097 0.241487 0.095179
C13 C 0.76570(15) 0.2295(2) 0.12398(13)
H7 H 0.767896 0.166694 0.141443
C14 C 0.88679(14) 0.2430(2) 0.25465(12)
H8 H 0.854682 0.296239 0.243940
C15 C 0.35556(13) 0.15671(19) 0.10926(11)
C16 C 0.32059(13) 0.07465(19) 0.13586(13)
C17 C 0.42452(14) 0.1488(2) 0.10569(13)
C19 C 0.31898(15) 0.2425(2) 0.08724(16)
C20 C 0.11376(14) 0.06364(19) 0.07939(12)
C23 C 0.45462(14) 0.2246(2) 0.08057(13)
H11 H 0.271614 0.252157 0.088818
H12 H 0.502283 0.217338 0.079202
H14 H 0.451609 0.091868 0.120242
H15 H 0.347459 0.013755 0.135983
H17 H 0.327003 0.371439 0.048500
H18 H 0.063485 0.165846 0.119472
Cu2 Cu 0.96748(2) 0.07472(2) 0.51909(2)
Cu3 Cu 0.46748(2) 0.42528(2) 0.01909(2)
H19 H 0.324240 0.090512 0.178844
C29 C 0.35290(16) 0.3136(2) 0.06297(16)
C34 C 0.05490(14) 0.1183(2) 0.08810(13)
C35 C 0.18880(14) 0.0876(2) 0.12110(13)
O7 O 0.48961(9) 0.50566(13) 0.09559(7)
N3 N 0.41965(11) 0.30683(15) 0.05840(9)
O9 O 0.19823(10) 0.13129(17) 0.17039(10)
N4 N 0.24472(11) 0.05846(16) 0.10157(10)
H28 H 0.234984 0.028092 0.066336
Cu4 Cu 0.53252(2) 0.57472(2) 0.98091(2)
O8 O 0.45416(9) 0.36908(13) 0.93591(8)
O10 O 0.37715(8) 0.50145(13) 0.98395(7)
O16 O 0.54584(9) 0.63092(13) 0.06409(8)
H10 H 0.675760 0.909488 0.821156
C21 C 0.94510(14) 0.8817(2) 0.91190(13)
N1 N 0.58035(11) 0.69317(15) 0.94160(9)
C22 C 0.64710(16) 0.6864(2) 0.93703(16)
N2 N 0.75528(11) 0.94154(16) 0.89843(10)
H13 H 0.765016 0.971908 0.933664
C26 C 0.81120(14) 0.9124(2) 0.87890(13)
O6 O 0.80177(10) 0.86871(17) 0.82961(10)
C27 C 0.67941(13) 0.92535(19) 0.86414(13)
C28 C 0.88624(14) 0.93636(19) 0.92061(12)
C30 C 0.64444(13) 0.84329(19) 0.89074(11)
C31 C 0.68102(15) 0.7575(2) 0.91276(16)
C33 C 0.57548(14) 0.8512(2) 0.89431(13)
C36 C 0.54538(14) 0.7754(2) 0.91943(13)
H21 H 0.652541 0.986245 0.864017
H22 H 0.548391 0.908132 0.879758
H24 H 0.936515 0.834154 0.880528
H25 H 0.497717 0.782662 0.920798
H26 H 0.728386 0.747843 0.911182
H27 H 0.672997 0.628561 0.951500
O12 O 0.39551(9) 0.26626(15) 0.64949(8)
C39 C 0.41368(13) 0.3009(2) 0.71073(12)
C40 C 0.32864(14) 0.2210(2) 0.62500(11)
C41 C 0.45507(13) 0.37244(19) 0.83129(11)
C42 C 0.48208(13) 0.41398(19) 0.78629(12)
C43 C 0.19571(13) 0.13172(19) 0.57127(10)
C44 C 0.25991(14) 0.0845(2) 0.57292(12)
C45 C 0.46170(13) 0.3776(2) 0.72628(12)
O13 O 0.12285(8) 0.00145(13) 0.51605(7)
C46 C 0.12276(14) 0.0838(2) 0.54232(11)
C47 C 0.47538(13) 0.4145(2) 0.89557(12)
C48 C 0.19902(13) 0.2254(2) 0.59656(12)
H29 H 0.514336 0.467068 0.796751
C49 C 0.26570(15) 0.2705(2) 0.62398(13)
C50 C 0.40833(14) 0.2933(2) 0.81478(12)
H30 H 0.390822 0.263592 0.844834
O14 O 0.06739(9) 0.12735(13) 0.54753(8)
O15 O 0.51039(9) 0.49434(13) 0.90441(7)
C51 C 0.38679(14) 0.2570(2) 0.75465(12)
H31 H 0.258190 0.021958 0.555158
C52 C 0.32653(14) 0.1284(2) 0.60040(12)
H32 H 0.369557 0.095245 0.602148
H33 H 0.480661 0.405253 0.696496
H34 H 0.267896 0.333306 0.641443
H35 H 0.354682 0.203761 0.743940
H36 H 0.156097 0.258513 0.595179
O18 O 0.43261(9) 0.62735(13) 0.95247(8)
H25_2 H 0.002283 0.282662 0.579202
O11 O 0.04584(9) 0.86908(13) 0.56409(8)
O12_2 O 0.10449(9) 0.76626(15) 0.85051(8)
C39_2 C 0.08632(13) 0.8009(2) 0.78927(12)
C40_2 C 0.17136(14) 0.7210(2) 0.87500(11)
C41_2 C 0.04493(13) 0.87244(19) 0.66871(11)
C42_2 C 0.01792(13) 0.91398(19) 0.71371(12)
C43_2 C 0.30429(13) 0.63172(19) 0.92873(10)
C44_2 C 0.24009(14) 0.5845(2) 0.92708(12)
C45_2 C 0.03830(13) 0.8776(2) 0.77372(12)
C46_2 C 0.37724(14) 0.5838(2) 0.95768(11)
C47_2 C 0.02462(13) 0.9145(2) 0.60443(12)
C48_2 C 0.30098(13) 0.7254(2) 0.90344(12)
C49_2 C 0.23430(15) 0.7705(2) 0.87602(13)
C50_2 C 0.09167(14) 0.7933(2) 0.68522(12)
H30_2 H 0.109178 0.763592 0.655166
C51_2 C 0.11321(14) 0.7570(2) 0.74535(12)
H31_2 H 0.241810 0.521958 0.944842
C52_2 C 0.17347(14) 0.6284(2) 0.89960(12)
H32_2 H 0.130443 0.595245 0.897852
H33_2 H 0.019339 0.905253 0.803504
H34_2 H 0.232104 0.833306 0.858557
H35_2 H 0.145318 0.703761 0.756060
H36_2 H 0.343903 0.758513 0.904821
C15_2 C 0.14444(13) 0.65671(19) 0.39074(11)
C16_2 C 0.17941(13) 0.57465(19) 0.36414(13)
C17_2 C 0.07548(14) 0.6488(2) 0.39431(13)
C18 C 0.39923(13) 0.4918(2) 0.46546(12)
H9 H 0.360335 0.455363 0.470647
C19_2 C 0.18102(15) 0.7425(2) 0.41276(16)
C20_2 C 0.38624(14) 0.56364(19) 0.42061(12)
H10_2 H 0.824240 0.409488 0.678844
C21_2 C 0.55490(14) 0.3817(2) 0.58810(13)
N1_2 N 0.91965(11) 0.19317(15) 0.55840(9)
C22_2 C 0.85290(16) 0.1864(2) 0.56297(16)
C23_2 C 0.04538(14) 0.7246(2) 0.41943(13)
H11_2 H 0.228386 0.752157 0.411182
C24 C 0.51503(15) 0.6016(2) 0.44959(14)
C25 C 0.52959(12) 0.5281(2) 0.49605(12)
N2_2 N 0.74472(11) 0.44154(16) 0.60157(10)
H13_2 H 0.734984 0.471908 0.566336
C26_2 C 0.68880(14) 0.4124(2) 0.62110(13)
H14_2 H 0.048391 0.591868 0.379758
H15_2 H 0.152541 0.513755 0.364017
H16 H 0.553219 0.639460 0.444287
H17_2 H 0.172997 0.871439 0.451500
O6_2 O 0.69823(10) 0.36871(17) 0.67039(10)
H18_2 H 0.436515 0.665846 0.380528
C27_2 C 0.82059(13) 0.42535(19) 0.63586(13)
C28_2 C 0.61376(14) 0.43636(19) 0.57939(12)
H19_2 H 0.175760 0.590512 0.321156
C29_2 C 0.14710(16) 0.8136(2) 0.43703(16)
C30_2 C 0.85556(13) 0.34329(19) 0.60926(11)
C31_2 C 0.81898(15) 0.2575(2) 0.58724(16)
C32 C 0.60077(13) 0.5082(2) 0.53454(12)
H20 H 0.639665 0.544637 0.529353
C33_2 C 0.92452(14) 0.3512(2) 0.60569(13)
C34_2 C 0.44510(14) 0.6183(2) 0.41190(13)
C35_2 C 0.31120(14) 0.5876(2) 0.37890(13)
C36_2 C 0.95462(14) 0.2754(2) 0.58057(13)
H21_2 H 0.847459 0.486245 0.635983
H22_2 H 0.951609 0.408132 0.620242
C37 C 0.48497(15) 0.3984(2) 0.55041(14)
H23 H 0.446781 0.360540 0.555713
H24_2 H 0.563485 0.334154 0.619472
H26_2 H 0.771614 0.247843 0.588818
H27_2 H 0.827003 0.128561 0.548500
N3_2 N 0.08035(11) 0.80683(15) 0.44160(9)
O9_2 O 0.30177(10) 0.63129(17) 0.32961(10)
N4_2 N 0.25528(11) 0.55846(16) 0.39843(10)
C38 C 0.47041(12) 0.4719(2) 0.50395(12)
H28_2 H 0.265016 0.528092 0.433664
H29_2 H 0.985664 0.967068 0.703249
O15_2 O 0.98961(9) 0.99434(13) 0.59559(7)
O17 O 0.87715(8) 0.99855(13) 0.48395(7)
O2_2 O 0.93261(9) 0.87265(13) 0.45247(8)
O5_2 O 0.60449(9) 0.73374(15) 0.35051(8)
C1_2 C 0.87724(14) 0.9162(2) 0.45768(11)
C2_2 C 0.52462(13) 0.5855(2) 0.10443(12)
C3_2 C 0.54493(13) 0.62756(19) 0.16871(11)
C4_2 C 0.80429(13) 0.86828(19) 0.42873(10)
C5_2 C 0.58632(13) 0.6991(2) 0.28927(12)
C6_2 C 0.74009(14) 0.9155(2) 0.42708(12)
H1_2 H 0.741810 0.978042 0.444842
C7_2 C 0.51792(13) 0.58602(19) 0.21371(12)
H2_2 H 0.485664 0.532932 0.203249
C8_2 C 0.67347(14) 0.8716(2) 0.39960(12)
H3_2 H 0.630443 0.904755 0.397852
C9_2 C 0.53830(13) 0.6224(2) 0.27372(12)
H4_2 H 0.519339 0.594747 0.303504
C10_2 C 0.67136(14) 0.7790(2) 0.37500(11)
C11_2 C 0.59167(14) 0.7067(2) 0.18522(12)
H5_2 H 0.609178 0.736408 0.155166
C12_2 C 0.80098(13) 0.7746(2) 0.40344(12)
H6_2 H 0.843903 0.741487 0.404821
C13_2 C 0.73430(15) 0.7295(2) 0.37602(13)
H7_2 H 0.732104 0.666694 0.358557
C14_2 C 0.61321(14) 0.7430(2) 0.24535(12)
H8_2 H 0.645318 0.796239 0.256060
H12_2 H 0.997717 0.717338 0.420798
C18_2 C 0.10077(13) 0.9918(2) 0.03454(12)
H9_2 H 0.139665 0.955363 0.029353
C37_2 C 0.01503(15) 0.8984(2) 0.94959(14)
H23_2 H 0.053219 0.860540 0.944287
C38_2 C 0.02959(12) 0.9719(2) 0.99605(12)
C24_2 C 0.98497(15) 0.1016(2) 0.05041(14)
C25_2 C 0.97041(12) 0.0281(2) 0.00395(12)
H16_2 H 0.946781 0.139460 0.055713
C32_2 C 0.89923(13) 0.0082(2) 0.96546(12)
H20_2 H 0.860335 0.044637 0.970647
O21 O 0.37593(8) 0.00343(13) 0.48652(7)
O25 O 0.50962(8) 0.00985(12) 0.40134(7)
Cu10 Cu 0.53442(2) 0.07622(2) 0.48422(2)
Cu9 Cu 0.46558(2) 0.92378(2) 0.51578(2)
O19 O 0.44917(9) 0.88495(13) 0.42847(8)
N5 N 0.41702(11) 0.79699(14) 0.54691(9)
O20 O 0.56548(8) 0.86827(12) 0.53891(7)
O22 O 0.49038(8) 0.99015(12) 0.59866(7)
C53 C 0.47050(13) 0.93282(19) 0.38959(12)
C54 C 0.34759(15) 0.7926(2) 0.54206(15)
C55 C 0.45712(14) 0.7221(2) 0.57621(13)
C56 C 0.44787(12) 0.89604(18) 0.32349(11)
H37 H 0.317752 0.844022 0.521475
C57 C 0.31595(16) 0.7169(2) 0.56543(15)
C58 C 0.43016(15) 0.6442(2) 0.60150(13)
H38 H 0.506661 0.722330 0.579886
C59 C 0.39288(13) 0.82697(19) 0.30460(12)
C60 C 0.48126(13) 0.92841(18) 0.28023(12)
C61 C 0.35814(14) 0.64006(19) 0.59728(11)
H39 H 0.265947 0.717383 0.559762
H40 H 0.461340 0.593812 0.621732
H41 H 0.369152 0.805551 0.332801
C62 C 0.37217(13) 0.78881(19) 0.24492(12)
C63 C 0.46073(12) 0.8910(2) 0.22043(11)
H42 H 0.517938 0.975928 0.291706
C64 C 0.32877(14) 0.5558(2) 0.62598(13)
C65 C 0.40593(12) 0.82169(19) 0.20301(11)
H43 H 0.335590 0.741169 0.233271
H44 H 0.483899 0.912620 0.191864
N6 N 0.24967(11) 0.54454(17) 0.60422(11)
H45 H 0.350786 0.494851 0.617507
H46 H 0.343799 0.565026 0.670905
O23 O 0.38974(9) 0.78564(14) 0.14286(8)
H47 H 0.223624 0.564235 0.627131
C66 C 0.21806(15) 0.5038(2) 0.54904(14)
C67 C 0.32322(14) 0.7368(2) 0.11764(11)
O24 O 0.25338(9) 0.47603(18) 0.51459(9)
C68 C 0.13662(15) 0.4924(2) 0.52868(13)
C69 C 0.32407(14) 0.6384(2) 0.10507(13)
C70 C 0.25994(15) 0.7882(2) 0.10250(14)
C71 C 0.10786(16) 0.4133(3) 0.48779(14)
C72 C 0.09221(17) 0.5560(3) 0.54626(14)
C73 C 0.25839(14) 0.5909(2) 0.07851(13)
H48 H 0.367906 0.603798 0.114149
C74 C 0.19446(13) 0.7394(2) 0.07599(13)
H49 H 0.260338 0.856091 0.109821
H50 H 0.140233 0.371024 0.476773
C75 C 0.03315(19) 0.3951(3) 0.46296(16)
C76 C 0.01118(17) 0.5402(2) 0.52022(12)
H51 H 0.111083 0.607916 0.573565
C77 C 0.19294(12) 0.63978(18) 0.06388(10)
H52 H 0.258607 0.523374 0.070271
H53 H 0.150916 0.774728 0.066292
H54 H 0.015084 0.341882 0.436544
C78 C 0.12193(13) 0.58822(19) 0.03624(11)
O26 O 0.06548(8) 0.63173(12) 0.03891(7)
O27 O 0.12407(8) 0.50343(13) 0.01348(7)
Cu15 Cu 0.03442(2) 0.42378(2) 0.98422(2)
Cu16 Cu 0.96558(2) 0.57622(2) 0.01578(2)
C79 C 0.98882(17) 0.4598(2) 0.47978(12)
C80 C 0.96685(19) 0.6049(3) 0.53704(16)
C81 C 0.90779(17) 0.4440(3) 0.45374(14)
C82 C 0.89214(16) 0.5867(3) 0.51221(14)
H55 H 0.984916 0.658118 0.563456
C83 C 0.86338(15) 0.5076(2) 0.47132(13)
H56 H 0.888917 0.392084 0.426435
H57 H 0.859767 0.628976 0.523227
C84 C 0.78194(15) 0.4962(2) 0.45096(14)
O28 O 0.74662(9) 0.52397(18) 0.48541(9)
N7 N 0.75033(11) 0.45546(17) 0.39578(11)
H58 H 0.776376 0.435765 0.372869
C85 C 0.67123(14) 0.4442(2) 0.37402(13)
C86 C 0.64186(14) 0.35994(19) 0.40272(11)
H59 H 0.649214 0.505149 0.382493
H60 H 0.656201 0.434974 0.329095
C87 C 0.56984(15) 0.3558(2) 0.39850(13)
C88 C 0.68405(16) 0.2831(2) 0.43457(15)
H61 H 0.538660 0.406188 0.378268
C89 C 0.54288(14) 0.2779(2) 0.42379(13)
C90 C 0.65241(15) 0.2074(2) 0.45794(15)
H62 H 0.734053 0.282617 0.440238
N8 N 0.58298(11) 0.20301(14) 0.45309(9)
H63 H 0.493339 0.277670 0.420114
H64 H 0.682248 0.155978 0.478525
O29 O 0.55083(9) 0.11505(13) 0.57153(8)
O30 O 0.43452(8) 0.13173(12) 0.46109(7)
C91 C 0.52950(13) 0.06718(19) 0.61041(12)
C92 C 0.55213(12) 0.10396(18) 0.67651(11)
C93 C 0.60712(13) 0.17303(19) 0.69540(12)
C94 C 0.51874(13) 0.07159(18) 0.71977(12)
H65 H 0.630848 0.194449 0.667199
C95 C 0.62783(13) 0.21119(19) 0.75508(12)
C96 C 0.53927(12) 0.1090(2) 0.77957(11)
H66 H 0.482062 0.024072 0.708294
C97 C 0.59407(12) 0.17831(19) 0.79699(11)
H67 H 0.664410 0.258831 0.766729
H68 H 0.516101 0.087380 0.808136
O34 O 0.61026(9) 0.21436(14) 0.85714(8)
C98 C 0.67678(14) 0.2632(2) 0.88236(11)
C99 C 0.67593(14) 0.3616(2) 0.89493(13)
C100 C 0.74006(15) 0.2118(2) 0.89750(14)
C101 C 0.74161(14) 0.4091(2) 0.92149(13)
H69 H 0.632094 0.396202 0.885851
C102 C 0.80554(13) 0.2606(2) 0.92401(13)
H70 H 0.739662 0.143909 0.890179
C103 C 0.80706(12) 0.36022(18) 0.93612(10)
H71 H 0.741393 0.476626 0.929729
H72 H 0.849084 0.225272 0.933708
C104 C 0.87807(13) 0.41178(19) 0.96376(11)
O35 O 0.93452(8) 0.36827(12) 0.96109(7)
O36 O 0.87593(8) 0.49657(13) 0.98652(7)
O31 O 0.62407(8) 0.99657(13) 0.51348(7)
H63_2 H 0.006661 0.777670 0.079886
O33 O 0.00962(8) 0.49015(12) 0.90134(7)
H66_2 H 0.017938 0.524072 0.791706
O19_2 O 0.05083(9) 0.38495(13) 0.07153(8)
C53_2 C 0.02950(13) 0.43282(19) 0.11041(12)
C56_2 C 0.05213(12) 0.39604(18) 0.17651(11)
C59_2 C 0.10712(13) 0.32697(19) 0.19540(12)
C60_2 C 0.01874(13) 0.42841(18) 0.21977(12)
H41_2 H 0.130848 0.305551 0.167199
C62_2 C 0.12783(13) 0.28881(19) 0.25508(12)
C63_2 C 0.03927(12) 0.3910(2) 0.27957(11)
C65_2 C 0.09407(12) 0.32169(19) 0.29699(11)
H43_2 H 0.164410 0.241169 0.266729
H44_2 H 0.016101 0.412620 0.308136
O23_2 O 0.11026(9) 0.28564(14) 0.35714(8)
C67_2 C 0.17678(14) 0.2368(2) 0.38236(11)
C69_2 C 0.17593(14) 0.1384(2) 0.39493(13)
C70_2 C 0.24006(15) 0.2882(2) 0.39750(14)
C73_2 C 0.24161(14) 0.0909(2) 0.42149(13)
H48_2 H 0.132094 0.103798 0.385851
C74_2 C 0.30554(13) 0.2394(2) 0.42401(13)
H49_2 H 0.239662 0.356091 0.390179
C77_2 C 0.30706(12) 0.13978(18) 0.43612(10)
H52_2 H 0.241393 0.023374 0.429729
H53_2 H 0.349084 0.274728 0.433708
C78_2 C 0.37807(13) 0.08822(19) 0.46376(11)
C83_2 C 0.63662(15) 0.0076(2) 0.02868(13)
O28_2 O 0.75338(9) 0.02397(18) 0.01459(9)
H59_2 H 0.850786 0.005149 0.117507
N5_2 N 0.08298(11) 0.29699(14) 0.95309(9)
C54_2 C 0.15241(15) 0.2926(2) 0.95794(15)
C55_2 C 0.04288(14) 0.2221(2) 0.92379(13)
H37_2 H 0.182248 0.344022 0.978525
C57_2 C 0.18405(16) 0.2169(2) 0.93457(15)
C58_2 C 0.06984(15) 0.1442(2) 0.89850(13)
C61_2 C 0.14186(14) 0.14006(19) 0.90272(11)
H39_2 H 0.234053 0.217383 0.940238
H40_2 H 0.038660 0.093812 0.878268
C64_2 C 0.17123(14) 0.0558(2) 0.87402(13)
N6_2 N 0.25033(11) 0.04454(17) 0.89578(11)
H46_2 H 0.156201 0.065026 0.829095
H47_2 H 0.276376 0.064235 0.872869
C66_2 C 0.28194(15) 0.0038(2) 0.95096(14)
C72_2 C 0.40779(17) 0.0560(3) 0.95374(14)
C76_2 C 0.48882(17) 0.0402(2) 0.97978(12)
H51_2 H 0.388917 0.107916 0.926435
C80_2 C 0.53315(19) 0.1049(3) 0.96296(16)
C82_2 C 0.60786(16) 0.0867(3) 0.98779(14)
H55_2 H 0.515084 0.158118 0.936544
H57_2 H 0.640233 0.128976 0.976773
C71_2 C 0.39214(16) 0.9133(3) 0.01221(14)
H50_2 H 0.359767 0.871024 0.023227
C75_2 C 0.46685(19) 0.8951(3) 0.03704(16)
H54_2 H 0.484916 0.841882 0.063456
C79_2 C 0.51118(17) 0.9598(2) 0.02022(12)
C81_2 C 0.59221(17) 0.9440(3) 0.04626(14)
H56_2 H 0.611083 0.892084 0.073565
C84_2 C 0.71806(15) 0.9962(2) 0.04904(14)
N7_2 N 0.74967(11) 0.95546(17) 0.10422(11)
H58_2 H 0.723624 0.935765 0.127131
C85_2 C 0.82877(14) 0.9442(2) 0.12598(13)
C86_2 C 0.85814(14) 0.85994(19) 0.09728(11)
H60_2 H 0.843799 0.934974 0.170905
C87_2 C 0.93016(15) 0.8558(2) 0.10150(13)
C88_2 C 0.81595(16) 0.7831(2) 0.06543(15)
H61_2 H 0.961340 0.906188 0.121732
C89_2 C 0.95712(14) 0.7779(2) 0.07621(13)
C90_2 C 0.84759(15) 0.7074(2) 0.04206(15)
H62_2 H 0.765947 0.782617 0.059762
N8_2 N 0.91702(11) 0.70301(14) 0.04691(9)
H64_2 H 0.817752 0.655978 0.021475
O32 O 0.99038(8) 0.50985(12) 0.09866(7)
H45_2 H 0.149214 0.994851 0.882493
O24_2 O 0.24662(9) 0.97603(18) 0.98541(9)
C68_2 C 0.36338(15) 0.9924(2) 0.97132(13)
O29_2 O 0.94917(9) 0.61505(13) 0.92847(8)
C91_2 C 0.97050(13) 0.56718(19) 0.88959(12)
C92_2 C 0.94787(12) 0.60396(18) 0.82349(11)
C93_2 C 0.89288(13) 0.67303(19) 0.80460(12)
C94_2 C 0.98126(13) 0.57159(18) 0.78023(12)
H65_2 H 0.869152 0.694449 0.832801
C95_2 C 0.87217(13) 0.71119(19) 0.74492(12)
C96_2 C 0.96073(12) 0.6090(2) 0.72043(11)
C97_2 C 0.90593(12) 0.67831(19) 0.70301(11)
H67_2 H 0.835590 0.758831 0.733271
H68_2 H 0.983899 0.587380 0.691864
O34_2 O 0.88974(9) 0.71436(14) 0.64286(8)
C98_2 C 0.82322(14) 0.7632(2) 0.61764(11)
C99_2 C 0.82407(14) 0.8616(2) 0.60507(13)
C100_2 C 0.75994(15) 0.7118(2) 0.60250(14)
C101_2 C 0.75839(14) 0.9091(2) 0.57851(13)
H69_2 H 0.867906 0.896202 0.614149
C102_2 C 0.69446(13) 0.7606(2) 0.57599(13)
H70_2 H 0.760338 0.643909 0.609821
C103_2 C 0.69294(12) 0.86022(18) 0.56388(10)
H71_2 H 0.758607 0.976626 0.570271
H72_2 H 0.650916 0.725272 0.566292
C104_2 C 0.62193(13) 0.91178(19) 0.53624(11)
H42_2 H 0.982062 0.475928 0.208294
H38_2 H 0.993339 0.222330 0.920114
loop_
_geom_bond_atom_site_label_1
_geom_bond_atom_site_label_2
_geom_bond_site_symmetry_1
_geom_bond_site_symmetry_2
O1 C1 1_555 1_555
O2 C1 1_555 1_555
O4 C2 1_555 1_555
O5 C5 1_555 1_555
C1 C4 1_555 1_555
C2 C3 1_555 1_555
C3 C7 1_555 1_555
C4 C6 1_555 1_555
C5 C9 1_555 1_555
C6 H1 1_555 1_555
C8 C6 1_555 1_555
H3 C8 1_555 1_555
C9 C7 1_555 1_555
H4 C9 1_555 1_555
C10 O5 1_555 1_555
C11 C3 1_555 1_555
H5 C11 1_555 1_555
C12 C4 1_555 1_555
H6 C12 1_555 1_555
C13 C10 1_555 1_555
H7 C13 1_555 1_555
C14 C5 1_555 1_555
H8 C14 1_555 1_555
C15 C16 1_555 1_555
C16 H15 1_555 1_555
C17 C15 1_555 1_555
C19 C15 1_555 1_555
C23 C17 1_555 1_555
H11 C19 1_555 1_555
H12 C23 1_555 1_555
H14 C17 1_555 1_555
H17 C29 1_555 1_555
H18 C34 1_555 1_555
Cu2 O4 1_555 1_555
Cu3 O2 1_555 1_555
H19 C16 1_555 1_555
C29 C19 1_555 1_555
C34 C20 1_555 1_555
C35 C20 1_555 1_555
O7 Cu3 1_555 1_555
N3 C23 1_555 1_555
O9 C35 1_555 1_555
N4 C16 1_555 1_555
H28 N4 1_555 1_555
C8 C10 1_555 1_555
C11 C14 1_555 1_555
C12 C13 1_555 1_555
Cu3 N3 1_555 1_555
C29 N3 1_555 1_555
C35 N4 1_555 1_555
H10 C27 1_555 1_555
C21 C28 1_555 1_555
N1 C22 1_555 1_555
C22 C31 1_555 1_555
N2 H13 1_555 1_555
C26 N2 1_555 1_555
O6 C26 1_555 1_555
C27 N2 1_555 1_555
C28 C26 1_555 1_555
C30 C27 1_555 1_555
C31 C30 1_555 1_555
C33 C30 1_555 1_555
C36 N1 1_555 1_555
Cu4 N1 1_555 1_555
H21 C27 1_555 1_555
H22 C33 1_555 1_555
H24 C21 1_555 1_555
H25 C36 1_555 1_555
H26 C31 1_555 1_555
H27 C22 1_555 1_555
O8 C47 1_555 1_555
O12 C39 1_555 1_555
C39 C45 1_555 1_555
C40 O12 1_555 1_555
C41 C42 1_555 1_555
C42 C45 1_555 1_555
C43 C44 1_555 1_555
C44 H31 1_555 1_555
C45 H33 1_555 1_555
C46 C43 1_555 1_555
C47 C41 1_555 1_555
C48 C43 1_555 1_555
H29 C42 1_555 1_555
C49 C40 1_555 1_555
C50 C41 1_555 1_555
H30 C50 1_555 1_555
O14 C46 1_555 1_555
O15 Cu4 1_555 1_555
C51 C39 1_555 1_555
C52 C40 1_555 1_555
H32 C52 1_555 1_555
H34 C49 1_555 1_555
H35 C51 1_555 1_555
H36 C48 1_555 1_555
O18 Cu4 1_555 1_555
C33 C36 1_555 1_555
C44 C52 1_555 1_555
O13 C46 1_555 1_555
C47 O15 1_555 1_555
C48 C49 1_555 1_555
C50 C51 1_555 1_555
Cu1 O11 1_555 1_555
O11 C47_2 1_555 1_555
O12_2 C39_2 1_555 1_555
C39_2 C45_2 1_555 1_555
C40_2 O12_2 1_555 1_555
C41_2 C42_2 1_555 1_555
C42_2 C45_2 1_555 1_555
C43_2 C44_2 1_555 1_555
C44_2 H31_2 1_555 1_555
C45_2 H33_2 1_555 1_555
C46_2 C43_2 1_555 1_555
C47_2 C41_2 1_555 1_555
C48_2 C43_2 1_555 1_555
C49_2 C40_2 1_555 1_555
C50_2 C41_2 1_555 1_555
H30_2 C50_2 1_555 1_555
O18 C46_2 1_555 1_555
C51_2 C39_2 1_555 1_555
C52_2 C40_2 1_555 1_555
H32_2 C52_2 1_555 1_555
H34_2 C49_2 1_555 1_555
H35_2 C51_2 1_555 1_555
H36_2 C48_2 1_555 1_555
C44_2 C52_2 1_555 1_555
O10 C46_2 1_555 1_555
C48_2 C49_2 1_555 1_555
C50_2 C51_2 1_555 1_555
C15_2 C16_2 1_555 1_555
C16_2 H15_2 1_555 1_555
C17_2 C15_2 1_555 1_555
C18 H9 1_555 1_555
C19_2 C15_2 1_555 1_555
C20_2 C18 1_555 1_555
H10_2 C27_2 1_555 1_555
C21_2 C28_2 1_555 1_555
N1_2 C22_2 1_555 1_555
C22_2 C31_2 1_555 1_555
C23_2 C17_2 1_555 1_555
H11_2 C19_2 1_555 1_555
C24 C25 1_555 1_555
C25 C32 1_555 1_555
N2_2 H13_2 1_555 1_555
C26_2 N2_2 1_555 1_555
H14_2 C17_2 1_555 1_555
H16 C24 1_555 1_555
H17_2 C29_2 1_555 1_555
O6_2 C26_2 1_555 1_555
H18_2 C34_2 1_555 1_555
C27_2 N2_2 1_555 1_555
C28_2 C26_2 1_555 1_555
H19_2 C16_2 1_555 1_555
C29_2 C19_2 1_555 1_555
C30_2 C27_2 1_555 1_555
C31_2 C30_2 1_555 1_555
C32 C28_2 1_555 1_555
H20 C32 1_555 1_555
C33_2 C30_2 1_555 1_555
C34_2 C20_2 1_555 1_555
C35_2 C20_2 1_555 1_555
C36_2 N1_2 1_555 1_555
Cu2 N1_2 1_555 1_555
H21_2 C27_2 1_555 1_555
H22_2 C33_2 1_555 1_555
C37 C21_2 1_555 1_555
H23 C37 1_555 1_555
H24_2 C21_2 1_555 1_555
H26_2 C31_2 1_555 1_555
H27_2 C22_2 1_555 1_555
N3_2 C23_2 1_555 1_555
O9_2 C35_2 1_555 1_555
N4_2 C16_2 1_555 1_555
C38 C18 1_555 1_555
H28_2 N4_2 1_555 1_555
C24 C34_2 1_555 1_555
C25 C38 1_555 1_555
Cu1 N3_2 1_555 1_555
C29_2 N3_2 1_555 1_555
C33_2 C36_2 1_555 1_555
C35_2 N4_2 1_555 1_555
C37 C38 1_555 1_555
O17 C1_2 1_555 1_555
O2_2 C1_2 1_555 1_555
O7 C2_2 1_555 1_555
O16 C2_2 1_555 1_555
O5_2 C5_2 1_555 1_555
C1_2 C4_2 1_555 1_555
C2_2 C3_2 1_555 1_555
C3_2 C7_2 1_555 1_555
C4_2 C6_2 1_555 1_555
C5_2 C9_2 1_555 1_555
C6_2 H1_2 1_555 1_555
C7_2 H2_2 1_555 1_555
C8_2 C6_2 1_555 1_555
H3_2 C8_2 1_555 1_555
C9_2 C7_2 1_555 1_555
H4_2 C9_2 1_555 1_555
C10_2 O5_2 1_555 1_555
C11_2 C3_2 1_555 1_555
H5_2 C11_2 1_555 1_555
C12_2 C4_2 1_555 1_555
H6_2 C12_2 1_555 1_555
C13_2 C10_2 1_555 1_555
H7_2 C13_2 1_555 1_555
C14_2 C5_2 1_555 1_555
H8_2 C14_2 1_555 1_555
C8_2 C10_2 1_555 1_555
C11_2 C14_2 1_555 1_555
C12_2 C13_2 1_555 1_555
C18_2 H9_2 1_555 1_555
H23_2 C37_2 1_555 1_555
C37_2 C38_2 1_555 1_555
C24_2 C25_2 1_555 1_555
H16_2 C24_2 1_555 1_555
H20_2 C32_2 1_555 1_555
Cu10 O25 1_555 1_555
Cu9 O19 1_555 1_555
O19 C53 1_555 1_555
N5 Cu9 1_555 1_555
O20 Cu9 1_555 1_555
O22 Cu9 1_555 1_555
C53 C56 1_555 1_555
C54 N5 1_555 1_555
C55 N5 1_555 1_555
C56 C59 1_555 1_555
H37 C54 1_555 1_555
C57 C54 1_555 1_555
C58 C55 1_555 1_555
H38 C55 1_555 1_555
C59 H41 1_555 1_555
C60 C56 1_555 1_555
C61 C57 1_555 1_555
H39 C57 1_555 1_555
H40 C58 1_555 1_555
C62 C59 1_555 1_555
C63 C60 1_555 1_555
H42 C60 1_555 1_555
C64 C61 1_555 1_555
C65 C62 1_555 1_555
H43 C62 1_555 1_555
H44 C63 1_555 1_555
N6 C64 1_555 1_555
H45 C64 1_555 1_555
H46 C64 1_555 1_555
O23 C65 1_555 1_555
H47 N6 1_555 1_555
C66 N6 1_555 1_555
C67 O23 1_555 1_555
O24 C66 1_555 1_555
C68 C66 1_555 1_555
C69 C67 1_555 1_555
C70 C67 1_555 1_555
C71 C68 1_555 1_555
C72 C68 1_555 1_555
C73 C69 1_555 1_555
H48 C69 1_555 1_555
C74 C70 1_555 1_555
H49 C70 1_555 1_555
H50 C71 1_555 1_555
C75 C71 1_555 1_555
C76 C72 1_555 1_555
H51 C72 1_555 1_555
C77 C73 1_555 1_555
H52 C73 1_555 1_555
H53 C74 1_555 1_555
H54 C75 1_555 1_555
C78 C77 1_555 1_555
O26 C78 1_555 1_555
O27 C78 1_555 1_555
C58 C61 1_555 1_555
C63 C65 1_555 1_555
C74 C77 1_555 1_555
C81 C79 1_555 1_555
C82 C80 1_555 1_555
H55 C80 1_555 1_555
C83 C81 1_555 1_555
H56 C81 1_555 1_555
H57 C82 1_555 1_555
C84 C83 1_555 1_555
O28 C84 1_555 1_555
N7 C84 1_555 1_555
H58 N7 1_555 1_555
C85 N7 1_555 1_555
C86 C85 1_555 1_555
H59 C85 1_555 1_555
H60 C85 1_555 1_555
C87 C86 1_555 1_555
C88 C86 1_555 1_555
H61 C87 1_555 1_555
C89 C87 1_555 1_555
C90 C88 1_555 1_555
H62 C88 1_555 1_555
N8 C89 1_555 1_555
H63 C89 1_555 1_555
H64 C90 1_555 1_555
Cu10 N8 1_555 1_555
O29 Cu10 1_555 1_555
O30 Cu10 1_555 1_555
C91 O29 1_555 1_555
C92 C91 1_555 1_555
C93 C92 1_555 1_555
C94 C92 1_555 1_555
H65 C93 1_555 1_555
C95 C93 1_555 1_555
C96 C94 1_555 1_555
H66 C94 1_555 1_555
C97 C95 1_555 1_555
H67 C95 1_555 1_555
H68 C96 1_555 1_555
O34 C97 1_555 1_555
C98 O34 1_555 1_555
C99 C98 1_555 1_555
C100 C98 1_555 1_555
C101 C99 1_555 1_555
H69 C99 1_555 1_555
C102 C100 1_555 1_555
H70 C100 1_555 1_555
C103 C101 1_555 1_555
H71 C101 1_555 1_555
H72 C102 1_555 1_555
C104 C103 1_555 1_555
O35 C104 1_555 1_555
O36 C104 1_555 1_555
C82 C83 1_555 1_555
C90 N8 1_555 1_555
C96 C97 1_555 1_555
C102 C103 1_555 1_555
Cu15 O33 1_555 1_555
O19_2 C53_2 1_555 1_555
C53_2 C56_2 1_555 1_555
C56_2 C59_2 1_555 1_555
C59_2 H41_2 1_555 1_555
C60_2 C56_2 1_555 1_555
C62_2 C59_2 1_555 1_555
C63_2 C60_2 1_555 1_555
C65_2 C62_2 1_555 1_555
H43_2 C62_2 1_555 1_555
H44_2 C63_2 1_555 1_555
O23_2 C65_2 1_555 1_555
C67_2 O23_2 1_555 1_555
C69_2 C67_2 1_555 1_555
C70_2 C67_2 1_555 1_555
C73_2 C69_2 1_555 1_555
H48_2 C69_2 1_555 1_555
C74_2 C70_2 1_555 1_555
H49_2 C70_2 1_555 1_555
C77_2 C73_2 1_555 1_555
H52_2 C73_2 1_555 1_555
H53_2 C74_2 1_555 1_555
C78_2 C77_2 1_555 1_555
O30 C78_2 1_555 1_555
O21 C78_2 1_555 1_555
C63_2 C65_2 1_555 1_555
C74_2 C77_2 1_555 1_555
N5_2 Cu15 1_555 1_555
C54_2 N5_2 1_555 1_555
C55_2 N5_2 1_555 1_555
H37_2 C54_2 1_555 1_555
C57_2 C54_2 1_555 1_555
C58_2 C55_2 1_555 1_555
C61_2 C57_2 1_555 1_555
H39_2 C57_2 1_555 1_555
H40_2 C58_2 1_555 1_555
C64_2 C61_2 1_555 1_555
N6_2 C64_2 1_555 1_555
H46_2 C64_2 1_555 1_555
H47_2 N6_2 1_555 1_555
C66_2 N6_2 1_555 1_555
C76_2 C72_2 1_555 1_555
H51_2 C72_2 1_555 1_555
C80_2 C76_2 1_555 1_555
C82_2 C80_2 1_555 1_555
H55_2 C80_2 1_555 1_555
H57_2 C82_2 1_555 1_555
C58_2 C61_2 1_555 1_555
H50_2 C71_2 1_555 1_555
C75_2 C71_2 1_555 1_555
H54_2 C75_2 1_555 1_555
C79_2 C75_2 1_555 1_555
C81_2 C79_2 1_555 1_555
H56_2 C81_2 1_555 1_555
N7_2 C84_2 1_555 1_555
H58_2 N7_2 1_555 1_555
C85_2 N7_2 1_555 1_555
C86_2 C85_2 1_555 1_555
H60_2 C85_2 1_555 1_555
C87_2 C86_2 1_555 1_555
C88_2 C86_2 1_555 1_555
H61_2 C87_2 1_555 1_555
C89_2 C87_2 1_555 1_555
C90_2 C88_2 1_555 1_555
H62_2 C88_2 1_555 1_555
N8_2 C89_2 1_555 1_555
H64_2 C90_2 1_555 1_555
Cu16 N8_2 1_555 1_555
O32 Cu16 1_555 1_555
C90_2 N8_2 1_555 1_555
C91_2 O29_2 1_555 1_555
C92_2 C91_2 1_555 1_555
C93_2 C92_2 1_555 1_555
C94_2 C92_2 1_555 1_555
H65_2 C93_2 1_555 1_555
C95_2 C93_2 1_555 1_555
C96_2 C94_2 1_555 1_555
C97_2 C95_2 1_555 1_555
H67_2 C95_2 1_555 1_555
H68_2 C96_2 1_555 1_555
O34_2 C97_2 1_555 1_555
C98_2 O34_2 1_555 1_555
C99_2 C98_2 1_555 1_555
C100_2 C98_2 1_555 1_555
C101_2 C99_2 1_555 1_555
H69_2 C99_2 1_555 1_555
C102_2 C100_2 1_555 1_555
H70_2 C100_2 1_555 1_555
C103_2 C101_2 1_555 1_555
H71_2 C101_2 1_555 1_555
H72_2 C102_2 1_555 1_555
C104_2 C103_2 1_555 1_555
O20 C104_2 1_555 1_555
O31 C104_2 1_555 1_555
C96_2 C97_2 1_555 1_555
C102_2 C103_2 1_555 1_555

#END
